/*---------------------------------------------------------------------------*\
  =========                 |
  \\      /  F ield         | OpenFOAM: The Open Source CFD Toolbox
   \\    /   O peration     | Website:  https://openfoam.org
    \\  /    A nd           | Version:  6
     \\/     M anipulation  |
\*---------------------------------------------------------------------------*/
Build  : 6
Exec   : postProcess -func minMaxMagnitude(U)
Date   : May 07 2019
Time   : 16:21:15
Host   : "cfdclu17.ugent.be"
PID    : 18800
I/O    : uncollated
Case   : /cfdfile2/data/fm/sabrina/ITHACA-FV/tutorials/03steadyNS_UQ
nProcs : 1
sigFpe : Enabling floating point exception trapping (FOAM_SIGFPE).
fileModificationChecking : Monitoring run-time modified files using timeStampMaster (fileModificationSkew 10)
allowSystemOperations : Allowing user-supplied system call operations

// * * * * * * * * * * * * * * * * * * * * * * * * * * * * * * * * * * * * * //
Create time

Create mesh for time = 0

Time = 0

Reading fields:
    volVectorFields: U

Executing functionObjects
fieldMinMax minMaxMagnitude(U) write:
    min(mag(U)) = 0 in cell 0 at location (0.02 0 0.05)
    max(mag(U)) = 1 in cell 0 at location (0.02 0.0125 0.05)


End

