/*---------------------------------------------------------------------------*\
  =========                 |
  \\      /  F ield         | OpenFOAM: The Open Source CFD Toolbox
   \\    /   O peration     | Website:  https://openfoam.org
    \\  /    A nd           | Version:  6
     \\/     M anipulation  |
\*---------------------------------------------------------------------------*/
Build  : 6
Exec   : LidDrivenCavity
Date   : Sep 19 2019
Time   : 15:36:53
Host   : "cfdclu57.ugent.be"
PID    : 15597
I/O    : uncollated
Case   : /cfdfile2/data/fm/sabrina/ITHACA-FV/tutorials/LidDrivenCavity
nProcs : 1
sigFpe : Enabling floating point exception trapping (FOAM_SIGFPE).
fileModificationChecking : Monitoring run-time modified files using timeStampMaster (fileModificationSkew 10)
allowSystemOperations : Allowing user-supplied system call operations

// * * * * * * * * * * * * * * * * * * * * * * * * * * * * * * * * * * * * * //
Reading field p

Create time

Reading field p

Create mesh for time = 0


PIMPLE: No convergence criteria found


PIMPLE: Operating solver in PISO mode

Reading field p

Reading field U

Reading/calculating face flux field phi

Selecting incompressible transport model Newtonian
Selecting turbulence model type laminar
Selecting laminar stress model Stokes
No MRF models present

Reading field p

Offline data already exist, reading existing data
POD don't exist, performing a POD decomposition
Supremizers don't exist, performing a POD decomposition
######### Reading the Data for U #########
  0% [                                                            ]  0% [                                                            ]  0% [                                                            ]  0% [                                                            ]  0% [                                                            ]  0% [                                                            ]  0% [                                                            ]  0% [                                                            ]  1% [                                                            ]  1% [                                                            ]  1% [                                                            ]  1% [                                                            ]  1% [                                                            ]  1% [                                                            ]  1% [|                                                           ]  1% [|                                                           ]  1% [|                                                           ]  1% [|                                                           ]  2% [|                                                           ]  2% [|                                                           ]  2% [|                                                           ]  2% [|                                                           ]  2% [|                                                           ]  2% [|                                                           ]  2% [|                                                           ]  2% [|                                                           ]  2% [|                                                           ]  2% [|                                                           ]  3% [|                                                           ]  3% [|                                                           ]  3% [|                                                           ]  3% [||                                                          ]  3% [||                                                          ]  3% [||                                                          ]  3% [||                                                          ]  3% [||                                                          ]  3% [||                                                          ]  3% [||                                                          ]  4% [||                                                          ]  4% [||                                                          ]  4% [||                                                          ]  4% [||                                                          ]  4% [||                                                          ]  4% [||                                                          ]  4% [||                                                          ]  4% [||                                                          ]  4% [||                                                          ]  4% [||                                                          ]  5% [|||                                                         ]  5% [|||                                                         ]  5% [|||                                                         ]  5% [|||                                                         ]  5% [|||                                                         ]  5% [|||                                                         ]  5% [|||                                                         ]  5% [|||                                                         ]  5% [|||                                                         ]  5% [|||                                                         ]  6% [|||                                                         ]  6% [|||                                                         ]  6% [|||                                                         ]  6% [|||                                                         ]  6% [|||                                                         ]  6% [|||                                                         ]  6% [||||                                                        ]  6% [||||                                                        ]  6% [||||                                                        ]  6% [||||                                                        ]  7% [||||                                                        ]  7% [||||                                                        ]  7% [||||                                                        ]  7% [||||                                                        ]  7% [||||                                                        ]  7% [||||                                                        ]  7% [||||                                                        ]  7% [||||                                                        ]  7% [||||                                                        ]  7% [||||                                                        ]  8% [||||                                                        ]  8% [||||                                                        ]  8% [||||                                                        ]  8% [|||||                                                       ]  8% [|||||                                                       ]  8% [|||||                                                       ]  8% [|||||                                                       ]  8% [|||||                                                       ]  8% [|||||                                                       ]  8% [|||||                                                       ]  9% [|||||                                                       ]  9% [|||||                                                       ]  9% [|||||                                                       ]  9% [|||||                                                       ]  9% [|||||                                                       ]  9% [|||||                                                       ]  9% [|||||                                                       ]  9% [|||||                                                       ]  9% [|||||                                                       ]  9% [|||||                                                       ] 10% [||||||                                                      ] 10% [||||||                                                      ] 10% [||||||                                                      ] 10% [||||||                                                      ] 10% [||||||                                                      ] 10% [||||||                                                      ] 10% [||||||                                                      ] 10% [||||||                                                      ] 10% [||||||                                                      ] 10% [||||||                                                      ] 11% [||||||                                                      ] 11% [||||||                                                      ] 11% [||||||                                                      ] 11% [||||||                                                      ] 11% [||||||                                                      ] 11% [||||||                                                      ] 11% [||||||                                                      ] 11% [|||||||                                                     ] 11% [|||||||                                                     ] 11% [|||||||                                                     ] 12% [|||||||                                                     ] 12% [|||||||                                                     ] 12% [|||||||                                                     ] 12% [|||||||                                                     ] 12% [|||||||                                                     ] 12% [|||||||                                                     ] 12% [|||||||                                                     ] 12% [|||||||                                                     ] 12% [|||||||                                                     ] 12% [|||||||                                                     ] 13% [|||||||                                                     ] 13% [|||||||                                                     ] 13% [|||||||                                                     ] 13% [||||||||                                                    ] 13% [||||||||                                                    ] 13% [||||||||                                                    ] 13% [||||||||                                                    ] 13% [||||||||                                                    ] 13% [||||||||                                                    ] 13% [||||||||                                                    ] 14% [||||||||                                                    ] 14% [||||||||                                                    ] 14% [||||||||                                                    ] 14% [||||||||                                                    ] 14% [||||||||                                                    ] 14% [||||||||                                                    ] 14% [||||||||                                                    ] 14% [||||||||                                                    ] 14% [||||||||                                                    ] 14% [||||||||                                                    ] 15% [|||||||||                                                   ] 15% [|||||||||                                                   ] 15% [|||||||||                                                   ] 15% [|||||||||                                                   ] 15% [|||||||||                                                   ] 15% [|||||||||                                                   ] 15% [|||||||||                                                   ] 15% [|||||||||                                                   ] 15% [|||||||||                                                   ] 15% [|||||||||                                                   ] 16% [|||||||||                                                   ] 16% [|||||||||                                                   ] 16% [|||||||||                                                   ] 16% [|||||||||                                                   ] 16% [|||||||||                                                   ] 16% [|||||||||                                                   ] 16% [|||||||||                                                   ] 16% [||||||||||                                                  ] 16% [||||||||||                                                  ] 16% [||||||||||                                                  ] 17% [||||||||||                                                  ] 17% [||||||||||                                                  ] 17% [||||||||||                                                  ] 17% [||||||||||                                                  ] 17% [||||||||||                                                  ] 17% [||||||||||                                                  ] 17% [||||||||||                                                  ] 17% [||||||||||                                                  ] 17% [||||||||||                                                  ] 17% [||||||||||                                                  ] 18% [||||||||||                                                  ] 18% [||||||||||                                                  ] 18% [||||||||||                                                  ] 18% [|||||||||||                                                 ] 18% [|||||||||||                                                 ] 18% [|||||||||||                                                 ] 18% [|||||||||||                                                 ] 18% [|||||||||||                                                 ] 18% [|||||||||||                                                 ] 18% [|||||||||||                                                 ] 19% [|||||||||||                                                 ] 19% [|||||||||||                                                 ] 19% [|||||||||||                                                 ] 19% [|||||||||||                                                 ] 19% [|||||||||||                                                 ] 19% [|||||||||||                                                 ] 19% [|||||||||||                                                 ] 19% [|||||||||||                                                 ] 19% [|||||||||||                                                 ] 19% [|||||||||||                                                 ] 20% [||||||||||||                                                ] 20% [||||||||||||                                                ] 20% [||||||||||||                                                ] 20% [||||||||||||                                                ] 20% [||||||||||||                                                ] 20% [||||||||||||                                                ] 20% [||||||||||||                                                ] 20% [||||||||||||                                                ] 20% [||||||||||||                                                ] 20% [||||||||||||                                                ] 21% [||||||||||||                                                ] 21% [||||||||||||                                                ] 21% [||||||||||||                                                ] 21% [||||||||||||                                                ] 21% [||||||||||||                                                ] 21% [||||||||||||                                                ] 21% [||||||||||||                                                ] 21% [|||||||||||||                                               ] 21% [|||||||||||||                                               ] 21% [|||||||||||||                                               ] 22% [|||||||||||||                                               ] 22% [|||||||||||||                                               ] 22% [|||||||||||||                                               ] 22% [|||||||||||||                                               ] 22% [|||||||||||||                                               ] 22% [|||||||||||||                                               ] 22% [|||||||||||||                                               ] 22% [|||||||||||||                                               ] 22% [|||||||||||||                                               ] 22% [|||||||||||||                                               ] 23% [|||||||||||||                                               ] 23% [|||||||||||||                                               ] 23% [|||||||||||||                                               ] 23% [|||||||||||||                                               ] 23% [||||||||||||||                                              ] 23% [||||||||||||||                                              ] 23% [||||||||||||||                                              ] 23% [||||||||||||||                                              ] 23% [||||||||||||||                                              ] 23% [||||||||||||||                                              ] 24% [||||||||||||||                                              ] 24% [||||||||||||||                                              ] 24% [||||||||||||||                                              ] 24% [||||||||||||||                                              ] 24% [||||||||||||||                                              ] 24% [||||||||||||||                                              ] 24% [||||||||||||||                                              ] 24% [||||||||||||||                                              ] 24% [||||||||||||||                                              ] 24% [||||||||||||||                                              ] 25% [|||||||||||||||                                             ] 25% [|||||||||||||||                                             ] 25% [|||||||||||||||                                             ] 25% [|||||||||||||||                                             ] 25% [|||||||||||||||                                             ] 25% [|||||||||||||||                                             ] 25% [|||||||||||||||                                             ] 25% [|||||||||||||||                                             ] 25% [|||||||||||||||                                             ] 25% [|||||||||||||||                                             ] 26% [|||||||||||||||                                             ] 26% [|||||||||||||||                                             ] 26% [|||||||||||||||                                             ] 26% [|||||||||||||||                                             ] 26% [|||||||||||||||                                             ] 26% [|||||||||||||||                                             ] 26% [|||||||||||||||                                             ] 26% [||||||||||||||||                                            ] 26% [||||||||||||||||                                            ] 26% [||||||||||||||||                                            ] 27% [||||||||||||||||                                            ] 27% [||||||||||||||||                                            ] 27% [||||||||||||||||                                            ] 27% [||||||||||||||||                                            ] 27% [||||||||||||||||                                            ] 27% [||||||||||||||||                                            ] 27% [||||||||||||||||                                            ] 27% [||||||||||||||||                                            ] 27% [||||||||||||||||                                            ] 27% [||||||||||||||||                                            ] 28% [||||||||||||||||                                            ] 28% [||||||||||||||||                                            ] 28% [||||||||||||||||                                            ] 28% [||||||||||||||||                                            ] 28% [|||||||||||||||||                                           ] 28% [|||||||||||||||||                                           ] 28% [|||||||||||||||||                                           ] 28% [|||||||||||||||||                                           ] 28% [|||||||||||||||||                                           ] 28% [|||||||||||||||||                                           ] 29% [|||||||||||||||||                                           ] 29% [|||||||||||||||||                                           ] 29% [|||||||||||||||||                                           ] 29% [|||||||||||||||||                                           ] 29% [|||||||||||||||||                                           ] 29% [|||||||||||||||||                                           ] 29% [|||||||||||||||||                                           ] 29% [|||||||||||||||||                                           ] 29% [|||||||||||||||||                                           ] 29% [|||||||||||||||||                                           ] 30% [||||||||||||||||||                                          ] 30% [||||||||||||||||||                                          ] 30% [||||||||||||||||||                                          ] 30% [||||||||||||||||||                                          ] 30% [||||||||||||||||||                                          ] 30% [||||||||||||||||||                                          ] 30% [||||||||||||||||||                                          ] 30% [||||||||||||||||||                                          ] 30% [||||||||||||||||||                                          ] 30% [||||||||||||||||||                                          ] 31% [||||||||||||||||||                                          ] 31% [||||||||||||||||||                                          ] 31% [||||||||||||||||||                                          ] 31% [||||||||||||||||||                                          ] 31% [||||||||||||||||||                                          ] 31% [||||||||||||||||||                                          ] 31% [||||||||||||||||||                                          ] 31% [|||||||||||||||||||                                         ] 31% [|||||||||||||||||||                                         ] 31% [|||||||||||||||||||                                         ] 32% [|||||||||||||||||||                                         ] 32% [|||||||||||||||||||                                         ] 32% [|||||||||||||||||||                                         ] 32% [|||||||||||||||||||                                         ] 32% [|||||||||||||||||||                                         ] 32% [|||||||||||||||||||                                         ] 32% [|||||||||||||||||||                                         ] 32% [|||||||||||||||||||                                         ] 32% [|||||||||||||||||||                                         ] 32% [|||||||||||||||||||                                         ] 33% [|||||||||||||||||||                                         ] 33% [|||||||||||||||||||                                         ] 33% [|||||||||||||||||||                                         ] 33% [|||||||||||||||||||                                         ] 33% [||||||||||||||||||||                                        ] 33% [||||||||||||||||||||                                        ] 33% [||||||||||||||||||||                                        ] 33% [||||||||||||||||||||                                        ] 33% [||||||||||||||||||||                                        ] 33% [||||||||||||||||||||                                        ] 33% [||||||||||||||||||||                                        ] 34% [||||||||||||||||||||                                        ] 34% [||||||||||||||||||||                                        ] 34% [||||||||||||||||||||                                        ] 34% [||||||||||||||||||||                                        ] 34% [||||||||||||||||||||                                        ] 34% [||||||||||||||||||||                                        ] 34% [||||||||||||||||||||                                        ] 34% [||||||||||||||||||||                                        ] 34% [||||||||||||||||||||                                        ] 34% [||||||||||||||||||||                                        ] 35% [|||||||||||||||||||||                                       ] 35% [|||||||||||||||||||||                                       ] 35% [|||||||||||||||||||||                                       ] 35% [|||||||||||||||||||||                                       ] 35% [|||||||||||||||||||||                                       ] 35% [|||||||||||||||||||||                                       ] 35% [|||||||||||||||||||||                                       ] 35% [|||||||||||||||||||||                                       ] 35% [|||||||||||||||||||||                                       ] 35% [|||||||||||||||||||||                                       ] 36% [|||||||||||||||||||||                                       ] 36% [|||||||||||||||||||||                                       ] 36% [|||||||||||||||||||||                                       ] 36% [|||||||||||||||||||||                                       ] 36% [|||||||||||||||||||||                                       ] 36% [|||||||||||||||||||||                                       ] 36% [||||||||||||||||||||||                                      ] 36% [||||||||||||||||||||||                                      ] 36% [||||||||||||||||||||||                                      ] 36% [||||||||||||||||||||||                                      ] 37% [||||||||||||||||||||||                                      ] 37% [||||||||||||||||||||||                                      ] 37% [||||||||||||||||||||||                                      ] 37% [||||||||||||||||||||||                                      ] 37% [||||||||||||||||||||||                                      ] 37% [||||||||||||||||||||||                                      ] 37% [||||||||||||||||||||||                                      ] 37% [||||||||||||||||||||||                                      ] 37% [||||||||||||||||||||||                                      ] 37% [||||||||||||||||||||||                                      ] 38% [||||||||||||||||||||||                                      ] 38% [||||||||||||||||||||||                                      ] 38% [||||||||||||||||||||||                                      ] 38% [|||||||||||||||||||||||                                     ] 38% [|||||||||||||||||||||||                                     ] 38% [|||||||||||||||||||||||                                     ] 38% [|||||||||||||||||||||||                                     ] 38% [|||||||||||||||||||||||                                     ] 38% [|||||||||||||||||||||||                                     ] 38% [|||||||||||||||||||||||                                     ] 39% [|||||||||||||||||||||||                                     ] 39% [|||||||||||||||||||||||                                     ] 39% [|||||||||||||||||||||||                                     ] 39% [|||||||||||||||||||||||                                     ] 39% [|||||||||||||||||||||||                                     ] 39% [|||||||||||||||||||||||                                     ] 39% [|||||||||||||||||||||||                                     ] 39% [|||||||||||||||||||||||                                     ] 39% [|||||||||||||||||||||||                                     ] 39% [|||||||||||||||||||||||                                     ] 40% [||||||||||||||||||||||||                                    ] 40% [||||||||||||||||||||||||                                    ] 40% [||||||||||||||||||||||||                                    ] 40% [||||||||||||||||||||||||                                    ] 40% [||||||||||||||||||||||||                                    ] 40% [||||||||||||||||||||||||                                    ] 40% [||||||||||||||||||||||||                                    ] 40% [||||||||||||||||||||||||                                    ] 40% [||||||||||||||||||||||||                                    ] 40% [||||||||||||||||||||||||                                    ] 41% [||||||||||||||||||||||||                                    ] 41% [||||||||||||||||||||||||                                    ] 41% [||||||||||||||||||||||||                                    ] 41% [||||||||||||||||||||||||                                    ] 41% [||||||||||||||||||||||||                                    ] 41% [||||||||||||||||||||||||                                    ] 41% [|||||||||||||||||||||||||                                   ] 41% [|||||||||||||||||||||||||                                   ] 41% [|||||||||||||||||||||||||                                   ] 41% [|||||||||||||||||||||||||                                   ] 42% [|||||||||||||||||||||||||                                   ] 42% [|||||||||||||||||||||||||                                   ] 42% [|||||||||||||||||||||||||                                   ] 42% [|||||||||||||||||||||||||                                   ] 42% [|||||||||||||||||||||||||                                   ] 42% [|||||||||||||||||||||||||                                   ] 42% [|||||||||||||||||||||||||                                   ] 42% [|||||||||||||||||||||||||                                   ] 42% [|||||||||||||||||||||||||                                   ] 42% [|||||||||||||||||||||||||                                   ] 43% [|||||||||||||||||||||||||                                   ] 43% [|||||||||||||||||||||||||                                   ] 43% [|||||||||||||||||||||||||                                   ] 43% [||||||||||||||||||||||||||                                  ] 43% [||||||||||||||||||||||||||                                  ] 43% [||||||||||||||||||||||||||                                  ] 43% [||||||||||||||||||||||||||                                  ] 43% [||||||||||||||||||||||||||                                  ] 43% [||||||||||||||||||||||||||                                  ] 43% [||||||||||||||||||||||||||                                  ] 44% [||||||||||||||||||||||||||                                  ] 44% [||||||||||||||||||||||||||                                  ] 44% [||||||||||||||||||||||||||                                  ] 44% [||||||||||||||||||||||||||                                  ] 44% [||||||||||||||||||||||||||                                  ] 44% [||||||||||||||||||||||||||                                  ] 44% [||||||||||||||||||||||||||                                  ] 44% [||||||||||||||||||||||||||                                  ] 44% [||||||||||||||||||||||||||                                  ] 44% [||||||||||||||||||||||||||                                  ] 45% [|||||||||||||||||||||||||||                                 ] 45% [|||||||||||||||||||||||||||                                 ] 45% [|||||||||||||||||||||||||||                                 ] 45% [|||||||||||||||||||||||||||                                 ] 45% [|||||||||||||||||||||||||||                                 ] 45% [|||||||||||||||||||||||||||                                 ] 45% [|||||||||||||||||||||||||||                                 ] 45% [|||||||||||||||||||||||||||                                 ] 45% [|||||||||||||||||||||||||||                                 ] 45% [|||||||||||||||||||||||||||                                 ] 46% [|||||||||||||||||||||||||||                                 ] 46% [|||||||||||||||||||||||||||                                 ] 46% [|||||||||||||||||||||||||||                                 ] 46% [|||||||||||||||||||||||||||                                 ] 46% [|||||||||||||||||||||||||||                                 ] 46% [|||||||||||||||||||||||||||                                 ] 46% [|||||||||||||||||||||||||||                                 ] 46% [||||||||||||||||||||||||||||                                ] 46% [||||||||||||||||||||||||||||                                ] 46% [||||||||||||||||||||||||||||                                ] 47% [||||||||||||||||||||||||||||                                ] 47% [||||||||||||||||||||||||||||                                ] 47% [||||||||||||||||||||||||||||                                ] 47% [||||||||||||||||||||||||||||                                ] 47% [||||||||||||||||||||||||||||                                ] 47% [||||||||||||||||||||||||||||                                ] 47% [||||||||||||||||||||||||||||                                ] 47% [||||||||||||||||||||||||||||                                ] 47% [||||||||||||||||||||||||||||                                ] 47% [||||||||||||||||||||||||||||                                ] 48% [||||||||||||||||||||||||||||                                ] 48% [||||||||||||||||||||||||||||                                ] 48% [||||||||||||||||||||||||||||                                ] 48% [|||||||||||||||||||||||||||||                               ] 48% [|||||||||||||||||||||||||||||                               ] 48% [|||||||||||||||||||||||||||||                               ] 48% [|||||||||||||||||||||||||||||                               ] 48% [|||||||||||||||||||||||||||||                               ] 48% [|||||||||||||||||||||||||||||                               ] 48% [|||||||||||||||||||||||||||||                               ] 49% [|||||||||||||||||||||||||||||                               ] 49% [|||||||||||||||||||||||||||||                               ] 49% [|||||||||||||||||||||||||||||                               ] 49% [|||||||||||||||||||||||||||||                               ] 49% [|||||||||||||||||||||||||||||                               ] 49% [|||||||||||||||||||||||||||||                               ] 49% [|||||||||||||||||||||||||||||                               ] 49% [|||||||||||||||||||||||||||||                               ] 49% [|||||||||||||||||||||||||||||                               ] 49% [|||||||||||||||||||||||||||||                               ] 50% [||||||||||||||||||||||||||||||                              ] 50% [||||||||||||||||||||||||||||||                              ] 50% [||||||||||||||||||||||||||||||                              ] 50% [||||||||||||||||||||||||||||||                              ] 50% [||||||||||||||||||||||||||||||                              ] 50% [||||||||||||||||||||||||||||||                              ] 50% [||||||||||||||||||||||||||||||                              ] 50% [||||||||||||||||||||||||||||||                              ] 50% [||||||||||||||||||||||||||||||                              ] 50% [||||||||||||||||||||||||||||||                              ] 51% [||||||||||||||||||||||||||||||                              ] 51% [||||||||||||||||||||||||||||||                              ] 51% [||||||||||||||||||||||||||||||                              ] 51% [||||||||||||||||||||||||||||||                              ] 51% [||||||||||||||||||||||||||||||                              ] 51% [||||||||||||||||||||||||||||||                              ] 51% [||||||||||||||||||||||||||||||                              ] 51% [|||||||||||||||||||||||||||||||                             ] 51% [|||||||||||||||||||||||||||||||                             ] 51% [|||||||||||||||||||||||||||||||                             ] 52% [|||||||||||||||||||||||||||||||                             ] 52% [|||||||||||||||||||||||||||||||                             ] 52% [|||||||||||||||||||||||||||||||                             ] 52% [|||||||||||||||||||||||||||||||                             ] 52% [|||||||||||||||||||||||||||||||                             ] 52% [|||||||||||||||||||||||||||||||                             ] 52% [|||||||||||||||||||||||||||||||                             ] 52% [|||||||||||||||||||||||||||||||                             ] 52% [|||||||||||||||||||||||||||||||                             ] 52% [|||||||||||||||||||||||||||||||                             ] 53% [|||||||||||||||||||||||||||||||                             ] 53% [|||||||||||||||||||||||||||||||                             ] 53% [|||||||||||||||||||||||||||||||                             ] 53% [||||||||||||||||||||||||||||||||                            ] 53% [||||||||||||||||||||||||||||||||                            ] 53% [||||||||||||||||||||||||||||||||                            ] 53% [||||||||||||||||||||||||||||||||                            ] 53% [||||||||||||||||||||||||||||||||                            ] 53% [||||||||||||||||||||||||||||||||                            ] 53% [||||||||||||||||||||||||||||||||                            ] 54% [||||||||||||||||||||||||||||||||                            ] 54% [||||||||||||||||||||||||||||||||                            ] 54% [||||||||||||||||||||||||||||||||                            ] 54% [||||||||||||||||||||||||||||||||                            ] 54% [||||||||||||||||||||||||||||||||                            ] 54% [||||||||||||||||||||||||||||||||                            ] 54% [||||||||||||||||||||||||||||||||                            ] 54% [||||||||||||||||||||||||||||||||                            ] 54% [||||||||||||||||||||||||||||||||                            ] 54% [||||||||||||||||||||||||||||||||                            ] 55% [|||||||||||||||||||||||||||||||||                           ] 55% [|||||||||||||||||||||||||||||||||                           ] 55% [|||||||||||||||||||||||||||||||||                           ] 55% [|||||||||||||||||||||||||||||||||                           ] 55% [|||||||||||||||||||||||||||||||||                           ] 55% [|||||||||||||||||||||||||||||||||                           ] 55% [|||||||||||||||||||||||||||||||||                           ] 55% [|||||||||||||||||||||||||||||||||                           ] 55% [|||||||||||||||||||||||||||||||||                           ] 55% [|||||||||||||||||||||||||||||||||                           ] 56% [|||||||||||||||||||||||||||||||||                           ] 56% [|||||||||||||||||||||||||||||||||                           ] 56% [|||||||||||||||||||||||||||||||||                           ] 56% [|||||||||||||||||||||||||||||||||                           ] 56% [|||||||||||||||||||||||||||||||||                           ] 56% [|||||||||||||||||||||||||||||||||                           ] 56% [|||||||||||||||||||||||||||||||||                           ] 56% [||||||||||||||||||||||||||||||||||                          ] 56% [||||||||||||||||||||||||||||||||||                          ] 56% [||||||||||||||||||||||||||||||||||                          ] 57% [||||||||||||||||||||||||||||||||||                          ] 57% [||||||||||||||||||||||||||||||||||                          ] 57% [||||||||||||||||||||||||||||||||||                          ] 57% [||||||||||||||||||||||||||||||||||                          ] 57% [||||||||||||||||||||||||||||||||||                          ] 57% [||||||||||||||||||||||||||||||||||                          ] 57% [||||||||||||||||||||||||||||||||||                          ] 57% [||||||||||||||||||||||||||||||||||                          ] 57% [||||||||||||||||||||||||||||||||||                          ] 57% [||||||||||||||||||||||||||||||||||                          ] 58% [||||||||||||||||||||||||||||||||||                          ] 58% [||||||||||||||||||||||||||||||||||                          ] 58% [||||||||||||||||||||||||||||||||||                          ] 58% [||||||||||||||||||||||||||||||||||                          ] 58% [|||||||||||||||||||||||||||||||||||                         ] 58% [|||||||||||||||||||||||||||||||||||                         ] 58% [|||||||||||||||||||||||||||||||||||                         ] 58% [|||||||||||||||||||||||||||||||||||                         ] 58% [|||||||||||||||||||||||||||||||||||                         ] 58% [|||||||||||||||||||||||||||||||||||                         ] 59% [|||||||||||||||||||||||||||||||||||                         ] 59% [|||||||||||||||||||||||||||||||||||                         ] 59% [|||||||||||||||||||||||||||||||||||                         ] 59% [|||||||||||||||||||||||||||||||||||                         ] 59% [|||||||||||||||||||||||||||||||||||                         ] 59% [|||||||||||||||||||||||||||||||||||                         ] 59% [|||||||||||||||||||||||||||||||||||                         ] 59% [|||||||||||||||||||||||||||||||||||                         ] 59% [|||||||||||||||||||||||||||||||||||                         ] 59% [|||||||||||||||||||||||||||||||||||                         ] 60% [||||||||||||||||||||||||||||||||||||                        ] 60% [||||||||||||||||||||||||||||||||||||                        ] 60% [||||||||||||||||||||||||||||||||||||                        ] 60% [||||||||||||||||||||||||||||||||||||                        ] 60% [||||||||||||||||||||||||||||||||||||                        ] 60% [||||||||||||||||||||||||||||||||||||                        ] 60% [||||||||||||||||||||||||||||||||||||                        ] 60% [||||||||||||||||||||||||||||||||||||                        ] 60% [||||||||||||||||||||||||||||||||||||                        ] 60% [||||||||||||||||||||||||||||||||||||                        ] 61% [||||||||||||||||||||||||||||||||||||                        ] 61% [||||||||||||||||||||||||||||||||||||                        ] 61% [||||||||||||||||||||||||||||||||||||                        ] 61% [||||||||||||||||||||||||||||||||||||                        ] 61% [||||||||||||||||||||||||||||||||||||                        ] 61% [||||||||||||||||||||||||||||||||||||                        ] 61% [||||||||||||||||||||||||||||||||||||                        ] 61% [|||||||||||||||||||||||||||||||||||||                       ] 61% [|||||||||||||||||||||||||||||||||||||                       ] 61% [|||||||||||||||||||||||||||||||||||||                       ] 62% [|||||||||||||||||||||||||||||||||||||                       ] 62% [|||||||||||||||||||||||||||||||||||||                       ] 62% [|||||||||||||||||||||||||||||||||||||                       ] 62% [|||||||||||||||||||||||||||||||||||||                       ] 62% [|||||||||||||||||||||||||||||||||||||                       ] 62% [|||||||||||||||||||||||||||||||||||||                       ] 62% [|||||||||||||||||||||||||||||||||||||                       ] 62% [|||||||||||||||||||||||||||||||||||||                       ] 62% [|||||||||||||||||||||||||||||||||||||                       ] 62% [|||||||||||||||||||||||||||||||||||||                       ] 63% [|||||||||||||||||||||||||||||||||||||                       ] 63% [|||||||||||||||||||||||||||||||||||||                       ] 63% [|||||||||||||||||||||||||||||||||||||                       ] 63% [|||||||||||||||||||||||||||||||||||||                       ] 63% [||||||||||||||||||||||||||||||||||||||                      ] 63% [||||||||||||||||||||||||||||||||||||||                      ] 63% [||||||||||||||||||||||||||||||||||||||                      ] 63% [||||||||||||||||||||||||||||||||||||||                      ] 63% [||||||||||||||||||||||||||||||||||||||                      ] 63% [||||||||||||||||||||||||||||||||||||||                      ] 64% [||||||||||||||||||||||||||||||||||||||                      ] 64% [||||||||||||||||||||||||||||||||||||||                      ] 64% [||||||||||||||||||||||||||||||||||||||                      ] 64% [||||||||||||||||||||||||||||||||||||||                      ] 64% [||||||||||||||||||||||||||||||||||||||                      ] 64% [||||||||||||||||||||||||||||||||||||||                      ] 64% [||||||||||||||||||||||||||||||||||||||                      ] 64% [||||||||||||||||||||||||||||||||||||||                      ] 64% [||||||||||||||||||||||||||||||||||||||                      ] 64% [||||||||||||||||||||||||||||||||||||||                      ] 65% [|||||||||||||||||||||||||||||||||||||||                     ] 65% [|||||||||||||||||||||||||||||||||||||||                     ] 65% [|||||||||||||||||||||||||||||||||||||||                     ] 65% [|||||||||||||||||||||||||||||||||||||||                     ] 65% [|||||||||||||||||||||||||||||||||||||||                     ] 65% [|||||||||||||||||||||||||||||||||||||||                     ] 65% [|||||||||||||||||||||||||||||||||||||||                     ] 65% [|||||||||||||||||||||||||||||||||||||||                     ] 65% [|||||||||||||||||||||||||||||||||||||||                     ] 65% [|||||||||||||||||||||||||||||||||||||||                     ] 66% [|||||||||||||||||||||||||||||||||||||||                     ] 66% [|||||||||||||||||||||||||||||||||||||||                     ] 66% [|||||||||||||||||||||||||||||||||||||||                     ] 66% [|||||||||||||||||||||||||||||||||||||||                     ] 66% [|||||||||||||||||||||||||||||||||||||||                     ] 66% [|||||||||||||||||||||||||||||||||||||||                     ] 66% [|||||||||||||||||||||||||||||||||||||||                     ] 66% [||||||||||||||||||||||||||||||||||||||||                    ] 66% [||||||||||||||||||||||||||||||||||||||||                    ] 66% [||||||||||||||||||||||||||||||||||||||||                    ] 66% [||||||||||||||||||||||||||||||||||||||||                    ] 67% [||||||||||||||||||||||||||||||||||||||||                    ] 67% [||||||||||||||||||||||||||||||||||||||||                    ] 67% [||||||||||||||||||||||||||||||||||||||||                    ] 67% [||||||||||||||||||||||||||||||||||||||||                    ] 67% [||||||||||||||||||||||||||||||||||||||||                    ] 67% [||||||||||||||||||||||||||||||||||||||||                    ] 67% [||||||||||||||||||||||||||||||||||||||||                    ] 67% [||||||||||||||||||||||||||||||||||||||||                    ] 67% [||||||||||||||||||||||||||||||||||||||||                    ] 67% [||||||||||||||||||||||||||||||||||||||||                    ] 68% [||||||||||||||||||||||||||||||||||||||||                    ] 68% [||||||||||||||||||||||||||||||||||||||||                    ] 68% [||||||||||||||||||||||||||||||||||||||||                    ] 68% [|||||||||||||||||||||||||||||||||||||||||                   ] 68% [|||||||||||||||||||||||||||||||||||||||||                   ] 68% [|||||||||||||||||||||||||||||||||||||||||                   ] 68% [|||||||||||||||||||||||||||||||||||||||||                   ] 68% [|||||||||||||||||||||||||||||||||||||||||                   ] 68% [|||||||||||||||||||||||||||||||||||||||||                   ] 68% [|||||||||||||||||||||||||||||||||||||||||                   ] 69% [|||||||||||||||||||||||||||||||||||||||||                   ] 69% [|||||||||||||||||||||||||||||||||||||||||                   ] 69% [|||||||||||||||||||||||||||||||||||||||||                   ] 69% [|||||||||||||||||||||||||||||||||||||||||                   ] 69% [|||||||||||||||||||||||||||||||||||||||||                   ] 69% [|||||||||||||||||||||||||||||||||||||||||                   ] 69% [|||||||||||||||||||||||||||||||||||||||||                   ] 69% [|||||||||||||||||||||||||||||||||||||||||                   ] 69% [|||||||||||||||||||||||||||||||||||||||||                   ] 69% [|||||||||||||||||||||||||||||||||||||||||                   ] 70% [||||||||||||||||||||||||||||||||||||||||||                  ] 70% [||||||||||||||||||||||||||||||||||||||||||                  ] 70% [||||||||||||||||||||||||||||||||||||||||||                  ] 70% [||||||||||||||||||||||||||||||||||||||||||                  ] 70% [||||||||||||||||||||||||||||||||||||||||||                  ] 70% [||||||||||||||||||||||||||||||||||||||||||                  ] 70% [||||||||||||||||||||||||||||||||||||||||||                  ] 70% [||||||||||||||||||||||||||||||||||||||||||                  ] 70% [||||||||||||||||||||||||||||||||||||||||||                  ] 70% [||||||||||||||||||||||||||||||||||||||||||                  ] 71% [||||||||||||||||||||||||||||||||||||||||||                  ] 71% [||||||||||||||||||||||||||||||||||||||||||                  ] 71% [||||||||||||||||||||||||||||||||||||||||||                  ] 71% [||||||||||||||||||||||||||||||||||||||||||                  ] 71% [||||||||||||||||||||||||||||||||||||||||||                  ] 71% [||||||||||||||||||||||||||||||||||||||||||                  ] 71% [|||||||||||||||||||||||||||||||||||||||||||                 ] 71% [|||||||||||||||||||||||||||||||||||||||||||                 ] 71% [|||||||||||||||||||||||||||||||||||||||||||                 ] 71% [|||||||||||||||||||||||||||||||||||||||||||                 ] 72% [|||||||||||||||||||||||||||||||||||||||||||                 ] 72% [|||||||||||||||||||||||||||||||||||||||||||                 ] 72% [|||||||||||||||||||||||||||||||||||||||||||                 ] 72% [|||||||||||||||||||||||||||||||||||||||||||                 ] 72% [|||||||||||||||||||||||||||||||||||||||||||                 ] 72% [|||||||||||||||||||||||||||||||||||||||||||                 ] 72% [|||||||||||||||||||||||||||||||||||||||||||                 ] 72% [|||||||||||||||||||||||||||||||||||||||||||                 ] 72% [|||||||||||||||||||||||||||||||||||||||||||                 ] 72% [|||||||||||||||||||||||||||||||||||||||||||                 ] 73% [|||||||||||||||||||||||||||||||||||||||||||                 ] 73% [|||||||||||||||||||||||||||||||||||||||||||                 ] 73% [|||||||||||||||||||||||||||||||||||||||||||                 ] 73% [||||||||||||||||||||||||||||||||||||||||||||                ] 73% [||||||||||||||||||||||||||||||||||||||||||||                ] 73% [||||||||||||||||||||||||||||||||||||||||||||                ] 73% [||||||||||||||||||||||||||||||||||||||||||||                ] 73% [||||||||||||||||||||||||||||||||||||||||||||                ] 73% [||||||||||||||||||||||||||||||||||||||||||||                ] 73% [||||||||||||||||||||||||||||||||||||||||||||                ] 74% [||||||||||||||||||||||||||||||||||||||||||||                ] 74% [||||||||||||||||||||||||||||||||||||||||||||                ] 74% [||||||||||||||||||||||||||||||||||||||||||||                ] 74% [||||||||||||||||||||||||||||||||||||||||||||                ] 74% [||||||||||||||||||||||||||||||||||||||||||||                ] 74% [||||||||||||||||||||||||||||||||||||||||||||                ] 74% [||||||||||||||||||||||||||||||||||||||||||||                ] 74% [||||||||||||||||||||||||||||||||||||||||||||                ] 74% [||||||||||||||||||||||||||||||||||||||||||||                ] 74% [||||||||||||||||||||||||||||||||||||||||||||                ] 75% [|||||||||||||||||||||||||||||||||||||||||||||               ] 75% [|||||||||||||||||||||||||||||||||||||||||||||               ] 75% [|||||||||||||||||||||||||||||||||||||||||||||               ] 75% [|||||||||||||||||||||||||||||||||||||||||||||               ] 75% [|||||||||||||||||||||||||||||||||||||||||||||               ] 75% [|||||||||||||||||||||||||||||||||||||||||||||               ] 75% [|||||||||||||||||||||||||||||||||||||||||||||               ] 75% [|||||||||||||||||||||||||||||||||||||||||||||               ] 75% [|||||||||||||||||||||||||||||||||||||||||||||               ] 75% [|||||||||||||||||||||||||||||||||||||||||||||               ] 76% [|||||||||||||||||||||||||||||||||||||||||||||               ] 76% [|||||||||||||||||||||||||||||||||||||||||||||               ] 76% [|||||||||||||||||||||||||||||||||||||||||||||               ] 76% [|||||||||||||||||||||||||||||||||||||||||||||               ] 76% [|||||||||||||||||||||||||||||||||||||||||||||               ] 76% [|||||||||||||||||||||||||||||||||||||||||||||               ] 76% [||||||||||||||||||||||||||||||||||||||||||||||              ] 76% [||||||||||||||||||||||||||||||||||||||||||||||              ] 76% [||||||||||||||||||||||||||||||||||||||||||||||              ] 76% [||||||||||||||||||||||||||||||||||||||||||||||              ] 77% [||||||||||||||||||||||||||||||||||||||||||||||              ] 77% [||||||||||||||||||||||||||||||||||||||||||||||              ] 77% [||||||||||||||||||||||||||||||||||||||||||||||              ] 77% [||||||||||||||||||||||||||||||||||||||||||||||              ] 77% [||||||||||||||||||||||||||||||||||||||||||||||              ] 77% [||||||||||||||||||||||||||||||||||||||||||||||              ] 77% [||||||||||||||||||||||||||||||||||||||||||||||              ] 77% [||||||||||||||||||||||||||||||||||||||||||||||              ] 77% [||||||||||||||||||||||||||||||||||||||||||||||              ] 77% [||||||||||||||||||||||||||||||||||||||||||||||              ] 78% [||||||||||||||||||||||||||||||||||||||||||||||              ] 78% [||||||||||||||||||||||||||||||||||||||||||||||              ] 78% [||||||||||||||||||||||||||||||||||||||||||||||              ] 78% [|||||||||||||||||||||||||||||||||||||||||||||||             ] 78% [|||||||||||||||||||||||||||||||||||||||||||||||             ] 78% [|||||||||||||||||||||||||||||||||||||||||||||||             ] 78% [|||||||||||||||||||||||||||||||||||||||||||||||             ] 78% [|||||||||||||||||||||||||||||||||||||||||||||||             ] 78% [|||||||||||||||||||||||||||||||||||||||||||||||             ] 78% [|||||||||||||||||||||||||||||||||||||||||||||||             ] 79% [|||||||||||||||||||||||||||||||||||||||||||||||             ] 79% [|||||||||||||||||||||||||||||||||||||||||||||||             ] 79% [|||||||||||||||||||||||||||||||||||||||||||||||             ] 79% [|||||||||||||||||||||||||||||||||||||||||||||||             ] 79% [|||||||||||||||||||||||||||||||||||||||||||||||             ] 79% [|||||||||||||||||||||||||||||||||||||||||||||||             ] 79% [|||||||||||||||||||||||||||||||||||||||||||||||             ] 79% [|||||||||||||||||||||||||||||||||||||||||||||||             ] 79% [|||||||||||||||||||||||||||||||||||||||||||||||             ] 79% [|||||||||||||||||||||||||||||||||||||||||||||||             ] 80% [||||||||||||||||||||||||||||||||||||||||||||||||            ] 80% [||||||||||||||||||||||||||||||||||||||||||||||||            ] 80% [||||||||||||||||||||||||||||||||||||||||||||||||            ] 80% [||||||||||||||||||||||||||||||||||||||||||||||||            ] 80% [||||||||||||||||||||||||||||||||||||||||||||||||            ] 80% [||||||||||||||||||||||||||||||||||||||||||||||||            ] 80% [||||||||||||||||||||||||||||||||||||||||||||||||            ] 80% [||||||||||||||||||||||||||||||||||||||||||||||||            ] 80% [||||||||||||||||||||||||||||||||||||||||||||||||            ] 80% [||||||||||||||||||||||||||||||||||||||||||||||||            ] 81% [||||||||||||||||||||||||||||||||||||||||||||||||            ] 81% [||||||||||||||||||||||||||||||||||||||||||||||||            ] 81% [||||||||||||||||||||||||||||||||||||||||||||||||            ] 81% [||||||||||||||||||||||||||||||||||||||||||||||||            ] 81% [||||||||||||||||||||||||||||||||||||||||||||||||            ] 81% [||||||||||||||||||||||||||||||||||||||||||||||||            ] 81% [||||||||||||||||||||||||||||||||||||||||||||||||            ] 81% [|||||||||||||||||||||||||||||||||||||||||||||||||           ] 81% [|||||||||||||||||||||||||||||||||||||||||||||||||           ] 81% [|||||||||||||||||||||||||||||||||||||||||||||||||           ] 82% [|||||||||||||||||||||||||||||||||||||||||||||||||           ] 82% [|||||||||||||||||||||||||||||||||||||||||||||||||           ] 82% [|||||||||||||||||||||||||||||||||||||||||||||||||           ] 82% [|||||||||||||||||||||||||||||||||||||||||||||||||           ] 82% [|||||||||||||||||||||||||||||||||||||||||||||||||           ] 82% [|||||||||||||||||||||||||||||||||||||||||||||||||           ] 82% [|||||||||||||||||||||||||||||||||||||||||||||||||           ] 82% [|||||||||||||||||||||||||||||||||||||||||||||||||           ] 82% [|||||||||||||||||||||||||||||||||||||||||||||||||           ] 82% [|||||||||||||||||||||||||||||||||||||||||||||||||           ] 83% [|||||||||||||||||||||||||||||||||||||||||||||||||           ] 83% [|||||||||||||||||||||||||||||||||||||||||||||||||           ] 83% [|||||||||||||||||||||||||||||||||||||||||||||||||           ] 83% [||||||||||||||||||||||||||||||||||||||||||||||||||          ] 83% [||||||||||||||||||||||||||||||||||||||||||||||||||          ] 83% [||||||||||||||||||||||||||||||||||||||||||||||||||          ] 83% [||||||||||||||||||||||||||||||||||||||||||||||||||          ] 83% [||||||||||||||||||||||||||||||||||||||||||||||||||          ] 83% [||||||||||||||||||||||||||||||||||||||||||||||||||          ] 83% [||||||||||||||||||||||||||||||||||||||||||||||||||          ] 84% [||||||||||||||||||||||||||||||||||||||||||||||||||          ] 84% [||||||||||||||||||||||||||||||||||||||||||||||||||          ] 84% [||||||||||||||||||||||||||||||||||||||||||||||||||          ] 84% [||||||||||||||||||||||||||||||||||||||||||||||||||          ] 84% [||||||||||||||||||||||||||||||||||||||||||||||||||          ] 84% [||||||||||||||||||||||||||||||||||||||||||||||||||          ] 84% [||||||||||||||||||||||||||||||||||||||||||||||||||          ] 84% [||||||||||||||||||||||||||||||||||||||||||||||||||          ] 84% [||||||||||||||||||||||||||||||||||||||||||||||||||          ] 84% [||||||||||||||||||||||||||||||||||||||||||||||||||          ] 85% [|||||||||||||||||||||||||||||||||||||||||||||||||||         ] 85% [|||||||||||||||||||||||||||||||||||||||||||||||||||         ] 85% [|||||||||||||||||||||||||||||||||||||||||||||||||||         ] 85% [|||||||||||||||||||||||||||||||||||||||||||||||||||         ] 85% [|||||||||||||||||||||||||||||||||||||||||||||||||||         ] 85% [|||||||||||||||||||||||||||||||||||||||||||||||||||         ] 85% [|||||||||||||||||||||||||||||||||||||||||||||||||||         ] 85% [|||||||||||||||||||||||||||||||||||||||||||||||||||         ] 85% [|||||||||||||||||||||||||||||||||||||||||||||||||||         ] 85% [|||||||||||||||||||||||||||||||||||||||||||||||||||         ] 86% [|||||||||||||||||||||||||||||||||||||||||||||||||||         ] 86% [|||||||||||||||||||||||||||||||||||||||||||||||||||         ] 86% [|||||||||||||||||||||||||||||||||||||||||||||||||||         ] 86% [|||||||||||||||||||||||||||||||||||||||||||||||||||         ] 86% [|||||||||||||||||||||||||||||||||||||||||||||||||||         ] 86% [|||||||||||||||||||||||||||||||||||||||||||||||||||         ] 86% [|||||||||||||||||||||||||||||||||||||||||||||||||||         ] 86% [||||||||||||||||||||||||||||||||||||||||||||||||||||        ] 86% [||||||||||||||||||||||||||||||||||||||||||||||||||||        ] 86% [||||||||||||||||||||||||||||||||||||||||||||||||||||        ] 87% [||||||||||||||||||||||||||||||||||||||||||||||||||||        ] 87% [||||||||||||||||||||||||||||||||||||||||||||||||||||        ] 87% [||||||||||||||||||||||||||||||||||||||||||||||||||||        ] 87% [||||||||||||||||||||||||||||||||||||||||||||||||||||        ] 87% [||||||||||||||||||||||||||||||||||||||||||||||||||||        ] 87% [||||||||||||||||||||||||||||||||||||||||||||||||||||        ] 87% [||||||||||||||||||||||||||||||||||||||||||||||||||||        ] 87% [||||||||||||||||||||||||||||||||||||||||||||||||||||        ] 87% [||||||||||||||||||||||||||||||||||||||||||||||||||||        ] 87% [||||||||||||||||||||||||||||||||||||||||||||||||||||        ] 88% [||||||||||||||||||||||||||||||||||||||||||||||||||||        ] 88% [||||||||||||||||||||||||||||||||||||||||||||||||||||        ] 88% [||||||||||||||||||||||||||||||||||||||||||||||||||||        ] 88% [|||||||||||||||||||||||||||||||||||||||||||||||||||||       ] 88% [|||||||||||||||||||||||||||||||||||||||||||||||||||||       ] 88% [|||||||||||||||||||||||||||||||||||||||||||||||||||||       ] 88% [|||||||||||||||||||||||||||||||||||||||||||||||||||||       ] 88% [|||||||||||||||||||||||||||||||||||||||||||||||||||||       ] 88% [|||||||||||||||||||||||||||||||||||||||||||||||||||||       ] 88% [|||||||||||||||||||||||||||||||||||||||||||||||||||||       ] 89% [|||||||||||||||||||||||||||||||||||||||||||||||||||||       ] 89% [|||||||||||||||||||||||||||||||||||||||||||||||||||||       ] 89% [|||||||||||||||||||||||||||||||||||||||||||||||||||||       ] 89% [|||||||||||||||||||||||||||||||||||||||||||||||||||||       ] 89% [|||||||||||||||||||||||||||||||||||||||||||||||||||||       ] 89% [|||||||||||||||||||||||||||||||||||||||||||||||||||||       ] 89% [|||||||||||||||||||||||||||||||||||||||||||||||||||||       ] 89% [|||||||||||||||||||||||||||||||||||||||||||||||||||||       ] 89% [|||||||||||||||||||||||||||||||||||||||||||||||||||||       ] 89% [|||||||||||||||||||||||||||||||||||||||||||||||||||||       ] 90% [||||||||||||||||||||||||||||||||||||||||||||||||||||||      ] 90% [||||||||||||||||||||||||||||||||||||||||||||||||||||||      ] 90% [||||||||||||||||||||||||||||||||||||||||||||||||||||||      ] 90% [||||||||||||||||||||||||||||||||||||||||||||||||||||||      ] 90% [||||||||||||||||||||||||||||||||||||||||||||||||||||||      ] 90% [||||||||||||||||||||||||||||||||||||||||||||||||||||||      ] 90% [||||||||||||||||||||||||||||||||||||||||||||||||||||||      ] 90% [||||||||||||||||||||||||||||||||||||||||||||||||||||||      ] 90% [||||||||||||||||||||||||||||||||||||||||||||||||||||||      ] 90% [||||||||||||||||||||||||||||||||||||||||||||||||||||||      ] 91% [||||||||||||||||||||||||||||||||||||||||||||||||||||||      ] 91% [||||||||||||||||||||||||||||||||||||||||||||||||||||||      ] 91% [||||||||||||||||||||||||||||||||||||||||||||||||||||||      ] 91% [||||||||||||||||||||||||||||||||||||||||||||||||||||||      ] 91% [||||||||||||||||||||||||||||||||||||||||||||||||||||||      ] 91% [||||||||||||||||||||||||||||||||||||||||||||||||||||||      ] 91% [||||||||||||||||||||||||||||||||||||||||||||||||||||||      ] 91% [|||||||||||||||||||||||||||||||||||||||||||||||||||||||     ] 91% [|||||||||||||||||||||||||||||||||||||||||||||||||||||||     ] 91% [|||||||||||||||||||||||||||||||||||||||||||||||||||||||     ] 92% [|||||||||||||||||||||||||||||||||||||||||||||||||||||||     ] 92% [|||||||||||||||||||||||||||||||||||||||||||||||||||||||     ] 92% [|||||||||||||||||||||||||||||||||||||||||||||||||||||||     ] 92% [|||||||||||||||||||||||||||||||||||||||||||||||||||||||     ] 92% [|||||||||||||||||||||||||||||||||||||||||||||||||||||||     ] 92% [|||||||||||||||||||||||||||||||||||||||||||||||||||||||     ] 92% [|||||||||||||||||||||||||||||||||||||||||||||||||||||||     ] 92% [|||||||||||||||||||||||||||||||||||||||||||||||||||||||     ] 92% [|||||||||||||||||||||||||||||||||||||||||||||||||||||||     ] 92% [|||||||||||||||||||||||||||||||||||||||||||||||||||||||     ] 93% [|||||||||||||||||||||||||||||||||||||||||||||||||||||||     ] 93% [|||||||||||||||||||||||||||||||||||||||||||||||||||||||     ] 93% [|||||||||||||||||||||||||||||||||||||||||||||||||||||||     ] 93% [|||||||||||||||||||||||||||||||||||||||||||||||||||||||     ] 93% [||||||||||||||||||||||||||||||||||||||||||||||||||||||||    ] 93% [||||||||||||||||||||||||||||||||||||||||||||||||||||||||    ] 93% [||||||||||||||||||||||||||||||||||||||||||||||||||||||||    ] 93% [||||||||||||||||||||||||||||||||||||||||||||||||||||||||    ] 93% [||||||||||||||||||||||||||||||||||||||||||||||||||||||||    ] 93% [||||||||||||||||||||||||||||||||||||||||||||||||||||||||    ] 94% [||||||||||||||||||||||||||||||||||||||||||||||||||||||||    ] 94% [||||||||||||||||||||||||||||||||||||||||||||||||||||||||    ] 94% [||||||||||||||||||||||||||||||||||||||||||||||||||||||||    ] 94% [||||||||||||||||||||||||||||||||||||||||||||||||||||||||    ] 94% [||||||||||||||||||||||||||||||||||||||||||||||||||||||||    ] 94% [||||||||||||||||||||||||||||||||||||||||||||||||||||||||    ] 94% [||||||||||||||||||||||||||||||||||||||||||||||||||||||||    ] 94% [||||||||||||||||||||||||||||||||||||||||||||||||||||||||    ] 94% [||||||||||||||||||||||||||||||||||||||||||||||||||||||||    ] 94% [||||||||||||||||||||||||||||||||||||||||||||||||||||||||    ] 95% [|||||||||||||||||||||||||||||||||||||||||||||||||||||||||   ] 95% [|||||||||||||||||||||||||||||||||||||||||||||||||||||||||   ] 95% [|||||||||||||||||||||||||||||||||||||||||||||||||||||||||   ] 95% [|||||||||||||||||||||||||||||||||||||||||||||||||||||||||   ] 95% [|||||||||||||||||||||||||||||||||||||||||||||||||||||||||   ] 95% [|||||||||||||||||||||||||||||||||||||||||||||||||||||||||   ] 95% [|||||||||||||||||||||||||||||||||||||||||||||||||||||||||   ] 95% [|||||||||||||||||||||||||||||||||||||||||||||||||||||||||   ] 95% [|||||||||||||||||||||||||||||||||||||||||||||||||||||||||   ] 95% [|||||||||||||||||||||||||||||||||||||||||||||||||||||||||   ] 96% [|||||||||||||||||||||||||||||||||||||||||||||||||||||||||   ] 96% [|||||||||||||||||||||||||||||||||||||||||||||||||||||||||   ] 96% [|||||||||||||||||||||||||||||||||||||||||||||||||||||||||   ] 96% [|||||||||||||||||||||||||||||||||||||||||||||||||||||||||   ] 96% [|||||||||||||||||||||||||||||||||||||||||||||||||||||||||   ] 96% [|||||||||||||||||||||||||||||||||||||||||||||||||||||||||   ] 96% [|||||||||||||||||||||||||||||||||||||||||||||||||||||||||   ] 96% [||||||||||||||||||||||||||||||||||||||||||||||||||||||||||  ] 96% [||||||||||||||||||||||||||||||||||||||||||||||||||||||||||  ] 96% [||||||||||||||||||||||||||||||||||||||||||||||||||||||||||  ] 97% [||||||||||||||||||||||||||||||||||||||||||||||||||||||||||  ] 97% [||||||||||||||||||||||||||||||||||||||||||||||||||||||||||  ] 97% [||||||||||||||||||||||||||||||||||||||||||||||||||||||||||  ] 97% [||||||||||||||||||||||||||||||||||||||||||||||||||||||||||  ] 97% [||||||||||||||||||||||||||||||||||||||||||||||||||||||||||  ] 97% [||||||||||||||||||||||||||||||||||||||||||||||||||||||||||  ] 97% [||||||||||||||||||||||||||||||||||||||||||||||||||||||||||  ] 97% [||||||||||||||||||||||||||||||||||||||||||||||||||||||||||  ] 97% [||||||||||||||||||||||||||||||||||||||||||||||||||||||||||  ] 97% [||||||||||||||||||||||||||||||||||||||||||||||||||||||||||  ] 98% [||||||||||||||||||||||||||||||||||||||||||||||||||||||||||  ] 98% [||||||||||||||||||||||||||||||||||||||||||||||||||||||||||  ] 98% [||||||||||||||||||||||||||||||||||||||||||||||||||||||||||  ] 98% [||||||||||||||||||||||||||||||||||||||||||||||||||||||||||  ] 98% [||||||||||||||||||||||||||||||||||||||||||||||||||||||||||| ] 98% [||||||||||||||||||||||||||||||||||||||||||||||||||||||||||| ] 98% [||||||||||||||||||||||||||||||||||||||||||||||||||||||||||| ] 98% [||||||||||||||||||||||||||||||||||||||||||||||||||||||||||| ] 98% [||||||||||||||||||||||||||||||||||||||||||||||||||||||||||| ] 98% [||||||||||||||||||||||||||||||||||||||||||||||||||||||||||| ] 99% [||||||||||||||||||||||||||||||||||||||||||||||||||||||||||| ] 99% [||||||||||||||||||||||||||||||||||||||||||||||||||||||||||| ] 99% [||||||||||||||||||||||||||||||||||||||||||||||||||||||||||| ] 99% [||||||||||||||||||||||||||||||||||||||||||||||||||||||||||| ] 99% [||||||||||||||||||||||||||||||||||||||||||||||||||||||||||| ] 99% [||||||||||||||||||||||||||||||||||||||||||||||||||||||||||| ] 99% [||||||||||||||||||||||||||||||||||||||||||||||||||||||||||| ] 99% [||||||||||||||||||||||||||||||||||||||||||||||||||||||||||| ] 99% [||||||||||||||||||||||||||||||||||||||||||||||||||||||||||| ] 99% [||||||||||||||||||||||||||||||||||||||||||||||||||||||||||| ]100% [||||||||||||||||||||||||||||||||||||||||||||||||||||||||||||]
######### Reading the Data for p #########
[...]
||||||||||                ] 73% [||||||||||||||||||||||||||||||||||||||||||||                ] 73% [||||||||||||||||||||||||||||||||||||||||||||                ] 73% [||||||||||||||||||||||||||||||||||||||||||||                ] 73% [||||||||||||||||||||||||||||||||||||||||||||                ] 73% [||||||||||||||||||||||||||||||||||||||||||||                ] 73% [||||||||||||||||||||||||||||||||||||||||||||                ] 74% [||||||||||||||||||||||||||||||||||||||||||||                ] 74% [||||||||||||||||||||||||||||||||||||||||||||                ] 74% [||||||||||||||||||||||||||||||||||||||||||||                ] 74% [||||||||||||||||||||||||||||||||||||||||||||                ] 74% [||||||||||||||||||||||||||||||||||||||||||||                ] 74% [||||||||||||||||||||||||||||||||||||||||||||                ] 74% [||||||||||||||||||||||||||||||||||||||||||||                ] 74% [||||||||||||||||||||||||||||||||||||||||||||                ] 74% [||||||||||||||||||||||||||||||||||||||||||||                ] 74% [||||||||||||||||||||||||||||||||||||||||||||                ] 75% [|||||||||||||||||||||||||||||||||||||||||||||               ] 75% [|||||||||||||||||||||||||||||||||||||||||||||               ] 75% [|||||||||||||||||||||||||||||||||||||||||||||               ] 75% [|||||||||||||||||||||||||||||||||||||||||||||               ] 75% [|||||||||||||||||||||||||||||||||||||||||||||               ] 75% [|||||||||||||||||||||||||||||||||||||||||||||               ] 75% [|||||||||||||||||||||||||||||||||||||||||||||               ] 75% [|||||||||||||||||||||||||||||||||||||||||||||               ] 75% [|||||||||||||||||||||||||||||||||||||||||||||               ] 75% [|||||||||||||||||||||||||||||||||||||||||||||               ] 76% [|||||||||||||||||||||||||||||||||||||||||||||               ] 76% [|||||||||||||||||||||||||||||||||||||||||||||               ] 76% [|||||||||||||||||||||||||||||||||||||||||||||               ] 76% [|||||||||||||||||||||||||||||||||||||||||||||               ] 76% [|||||||||||||||||||||||||||||||||||||||||||||               ] 76% [|||||||||||||||||||||||||||||||||||||||||||||               ] 76% [||||||||||||||||||||||||||||||||||||||||||||||              ] 76% [||||||||||||||||||||||||||||||||||||||||||||||              ] 76% [||||||||||||||||||||||||||||||||||||||||||||||              ] 76% [||||||||||||||||||||||||||||||||||||||||||||||              ] 77% [||||||||||||||||||||||||||||||||||||||||||||||              ] 77% [||||||||||||||||||||||||||||||||||||||||||||||              ] 77% [||||||||||||||||||||||||||||||||||||||||||||||              ] 77% [||||||||||||||||||||||||||||||||||||||||||||||              ] 77% [||||||||||||||||||||||||||||||||||||||||||||||              ] 77% [||||||||||||||||||||||||||||||||||||||||||||||              ] 77% [||||||||||||||||||||||||||||||||||||||||||||||              ] 77% [||||||||||||||||||||||||||||||||||||||||||||||              ] 77% [||||||||||||||||||||||||||||||||||||||||||||||              ] 77% [||||||||||||||||||||||||||||||||||||||||||||||              ] 78% [||||||||||||||||||||||||||||||||||||||||||||||              ] 78% [||||||||||||||||||||||||||||||||||||||||||||||              ] 78% [||||||||||||||||||||||||||||||||||||||||||||||              ] 78% [|||||||||||||||||||||||||||||||||||||||||||||||             ] 78% [|||||||||||||||||||||||||||||||||||||||||||||||             ] 78% [|||||||||||||||||||||||||||||||||||||||||||||||             ] 78% [|||||||||||||||||||||||||||||||||||||||||||||||             ] 78% [|||||||||||||||||||||||||||||||||||||||||||||||             ] 78% [|||||||||||||||||||||||||||||||||||||||||||||||             ] 78% [|||||||||||||||||||||||||||||||||||||||||||||||             ] 79% [|||||||||||||||||||||||||||||||||||||||||||||||             ] 79% [|||||||||||||||||||||||||||||||||||||||||||||||             ] 79% [|||||||||||||||||||||||||||||||||||||||||||||||             ] 79% [|||||||||||||||||||||||||||||||||||||||||||||||             ] 79% [|||||||||||||||||||||||||||||||||||||||||||||||             ] 79% [|||||||||||||||||||||||||||||||||||||||||||||||             ] 79% [|||||||||||||||||||||||||||||||||||||||||||||||             ] 79% [|||||||||||||||||||||||||||||||||||||||||||||||             ] 79% [|||||||||||||||||||||||||||||||||||||||||||||||             ] 79% [|||||||||||||||||||||||||||||||||||||||||||||||             ] 80% [||||||||||||||||||||||||||||||||||||||||||||||||            ] 80% [||||||||||||||||||||||||||||||||||||||||||||||||            ] 80% [||||||||||||||||||||||||||||||||||||||||||||||||            ] 80% [||||||||||||||||||||||||||||||||||||||||||||||||            ] 80% [||||||||||||||||||||||||||||||||||||||||||||||||            ] 80% [||||||||||||||||||||||||||||||||||||||||||||||||            ] 80% [||||||||||||||||||||||||||||||||||||||||||||||||            ] 80% [||||||||||||||||||||||||||||||||||||||||||||||||            ] 80% [||||||||||||||||||||||||||||||||||||||||||||||||            ] 80% [||||||||||||||||||||||||||||||||||||||||||||||||            ] 81% [||||||||||||||||||||||||||||||||||||||||||||||||            ] 81% [||||||||||||||||||||||||||||||||||||||||||||||||            ] 81% [||||||||||||||||||||||||||||||||||||||||||||||||            ] 81% [||||||||||||||||||||||||||||||||||||||||||||||||            ] 81% [||||||||||||||||||||||||||||||||||||||||||||||||            ] 81% [||||||||||||||||||||||||||||||||||||||||||||||||            ] 81% [||||||||||||||||||||||||||||||||||||||||||||||||            ] 81% [|||||||||||||||||||||||||||||||||||||||||||||||||           ] 81% [|||||||||||||||||||||||||||||||||||||||||||||||||           ] 81% [|||||||||||||||||||||||||||||||||||||||||||||||||           ] 82% [|||||||||||||||||||||||||||||||||||||||||||||||||           ] 82% [|||||||||||||||||||||||||||||||||||||||||||||||||           ] 82% [|||||||||||||||||||||||||||||||||||||||||||||||||           ] 82% [|||||||||||||||||||||||||||||||||||||||||||||||||           ] 82% [|||||||||||||||||||||||||||||||||||||||||||||||||           ] 82% [|||||||||||||||||||||||||||||||||||||||||||||||||           ] 82% [|||||||||||||||||||||||||||||||||||||||||||||||||           ] 82% [|||||||||||||||||||||||||||||||||||||||||||||||||           ] 82% [|||||||||||||||||||||||||||||||||||||||||||||||||           ] 82% [|||||||||||||||||||||||||||||||||||||||||||||||||           ] 83% [|||||||||||||||||||||||||||||||||||||||||||||||||           ] 83% [|||||||||||||||||||||||||||||||||||||||||||||||||           ] 83% [|||||||||||||||||||||||||||||||||||||||||||||||||           ] 83% [||||||||||||||||||||||||||||||||||||||||||||||||||          ] 83% [||||||||||||||||||||||||||||||||||||||||||||||||||          ] 83% [||||||||||||||||||||||||||||||||||||||||||||||||||          ] 83% [||||||||||||||||||||||||||||||||||||||||||||||||||          ] 83% [||||||||||||||||||||||||||||||||||||||||||||||||||          ] 83% [||||||||||||||||||||||||||||||||||||||||||||||||||          ] 83% [||||||||||||||||||||||||||||||||||||||||||||||||||          ] 84% [||||||||||||||||||||||||||||||||||||||||||||||||||          ] 84% [||||||||||||||||||||||||||||||||||||||||||||||||||          ] 84% [||||||||||||||||||||||||||||||||||||||||||||||||||          ] 84% [||||||||||||||||||||||||||||||||||||||||||||||||||          ] 84% [||||||||||||||||||||||||||||||||||||||||||||||||||          ] 84% [||||||||||||||||||||||||||||||||||||||||||||||||||          ] 84% [||||||||||||||||||||||||||||||||||||||||||||||||||          ] 84% [||||||||||||||||||||||||||||||||||||||||||||||||||          ] 84% [||||||||||||||||||||||||||||||||||||||||||||||||||          ] 84% [||||||||||||||||||||||||||||||||||||||||||||||||||          ] 85% [|||||||||||||||||||||||||||||||||||||||||||||||||||         ] 85% [|||||||||||||||||||||||||||||||||||||||||||||||||||         ] 85% [|||||||||||||||||||||||||||||||||||||||||||||||||||         ] 85% [|||||||||||||||||||||||||||||||||||||||||||||||||||         ] 85% [|||||||||||||||||||||||||||||||||||||||||||||||||||         ] 85% [|||||||||||||||||||||||||||||||||||||||||||||||||||         ] 85% [|||||||||||||||||||||||||||||||||||||||||||||||||||         ] 85% [|||||||||||||||||||||||||||||||||||||||||||||||||||         ] 85% [|||||||||||||||||||||||||||||||||||||||||||||||||||         ] 85% [|||||||||||||||||||||||||||||||||||||||||||||||||||         ] 86% [|||||||||||||||||||||||||||||||||||||||||||||||||||         ] 86% [|||||||||||||||||||||||||||||||||||||||||||||||||||         ] 86% [|||||||||||||||||||||||||||||||||||||||||||||||||||         ] 86% [|||||||||||||||||||||||||||||||||||||||||||||||||||         ] 86% [|||||||||||||||||||||||||||||||||||||||||||||||||||         ] 86% [|||||||||||||||||||||||||||||||||||||||||||||||||||         ] 86% [|||||||||||||||||||||||||||||||||||||||||||||||||||         ] 86% [||||||||||||||||||||||||||||||||||||||||||||||||||||        ] 86% [||||||||||||||||||||||||||||||||||||||||||||||||||||        ] 86% [||||||||||||||||||||||||||||||||||||||||||||||||||||        ] 87% [||||||||||||||||||||||||||||||||||||||||||||||||||||        ] 87% [||||||||||||||||||||||||||||||||||||||||||||||||||||        ] 87% [||||||||||||||||||||||||||||||||||||||||||||||||||||        ] 87% [||||||||||||||||||||||||||||||||||||||||||||||||||||        ] 87% [||||||||||||||||||||||||||||||||||||||||||||||||||||        ] 87% [||||||||||||||||||||||||||||||||||||||||||||||||||||        ] 87% [||||||||||||||||||||||||||||||||||||||||||||||||||||        ] 87% [||||||||||||||||||||||||||||||||||||||||||||||||||||        ] 87% [||||||||||||||||||||||||||||||||||||||||||||||||||||        ] 87% [||||||||||||||||||||||||||||||||||||||||||||||||||||        ] 88% [||||||||||||||||||||||||||||||||||||||||||||||||||||        ] 88% [||||||||||||||||||||||||||||||||||||||||||||||||||||        ] 88% [||||||||||||||||||||||||||||||||||||||||||||||||||||        ] 88% [|||||||||||||||||||||||||||||||||||||||||||||||||||||       ] 88% [|||||||||||||||||||||||||||||||||||||||||||||||||||||       ] 88% [|||||||||||||||||||||||||||||||||||||||||||||||||||||       ] 88% [|||||||||||||||||||||||||||||||||||||||||||||||||||||       ] 88% [|||||||||||||||||||||||||||||||||||||||||||||||||||||       ] 88% [|||||||||||||||||||||||||||||||||||||||||||||||||||||       ] 88% [|||||||||||||||||||||||||||||||||||||||||||||||||||||       ] 89% [|||||||||||||||||||||||||||||||||||||||||||||||||||||       ] 89% [|||||||||||||||||||||||||||||||||||||||||||||||||||||       ] 89% [|||||||||||||||||||||||||||||||||||||||||||||||||||||       ] 89% [|||||||||||||||||||||||||||||||||||||||||||||||||||||       ] 89% [|||||||||||||||||||||||||||||||||||||||||||||||||||||       ] 89% [|||||||||||||||||||||||||||||||||||||||||||||||||||||       ] 89% [|||||||||||||||||||||||||||||||||||||||||||||||||||||       ] 89% [|||||||||||||||||||||||||||||||||||||||||||||||||||||       ] 89% [|||||||||||||||||||||||||||||||||||||||||||||||||||||       ] 89% [|||||||||||||||||||||||||||||||||||||||||||||||||||||       ] 90% [||||||||||||||||||||||||||||||||||||||||||||||||||||||      ] 90% [||||||||||||||||||||||||||||||||||||||||||||||||||||||      ] 90% [||||||||||||||||||||||||||||||||||||||||||||||||||||||      ] 90% [||||||||||||||||||||||||||||||||||||||||||||||||||||||      ] 90% [||||||||||||||||||||||||||||||||||||||||||||||||||||||      ] 90% [||||||||||||||||||||||||||||||||||||||||||||||||||||||      ] 90% [||||||||||||||||||||||||||||||||||||||||||||||||||||||      ] 90% [||||||||||||||||||||||||||||||||||||||||||||||||||||||      ] 90% [||||||||||||||||||||||||||||||||||||||||||||||||||||||      ] 90% [||||||||||||||||||||||||||||||||||||||||||||||||||||||      ] 91% [||||||||||||||||||||||||||||||||||||||||||||||||||||||      ] 91% [||||||||||||||||||||||||||||||||||||||||||||||||||||||      ] 91% [||||||||||||||||||||||||||||||||||||||||||||||||||||||      ] 91% [||||||||||||||||||||||||||||||||||||||||||||||||||||||      ] 91% [||||||||||||||||||||||||||||||||||||||||||||||||||||||      ] 91% [||||||||||||||||||||||||||||||||||||||||||||||||||||||      ] 91% [||||||||||||||||||||||||||||||||||||||||||||||||||||||      ] 91% [|||||||||||||||||||||||||||||||||||||||||||||||||||||||     ] 91% [|||||||||||||||||||||||||||||||||||||||||||||||||||||||     ] 91% [|||||||||||||||||||||||||||||||||||||||||||||||||||||||     ] 92% [|||||||||||||||||||||||||||||||||||||||||||||||||||||||     ] 92% [|||||||||||||||||||||||||||||||||||||||||||||||||||||||     ] 92% [|||||||||||||||||||||||||||||||||||||||||||||||||||||||     ] 92% [|||||||||||||||||||||||||||||||||||||||||||||||||||||||     ] 92% [|||||||||||||||||||||||||||||||||||||||||||||||||||||||     ] 92% [|||||||||||||||||||||||||||||||||||||||||||||||||||||||     ] 92% [|||||||||||||||||||||||||||||||||||||||||||||||||||||||     ] 92% [|||||||||||||||||||||||||||||||||||||||||||||||||||||||     ] 92% [|||||||||||||||||||||||||||||||||||||||||||||||||||||||     ] 92% [|||||||||||||||||||||||||||||||||||||||||||||||||||||||     ] 93% [|||||||||||||||||||||||||||||||||||||||||||||||||||||||     ] 93% [|||||||||||||||||||||||||||||||||||||||||||||||||||||||     ] 93% [|||||||||||||||||||||||||||||||||||||||||||||||||||||||     ] 93% [|||||||||||||||||||||||||||||||||||||||||||||||||||||||     ] 93% [||||||||||||||||||||||||||||||||||||||||||||||||||||||||    ] 93% [||||||||||||||||||||||||||||||||||||||||||||||||||||||||    ] 93% [||||||||||||||||||||||||||||||||||||||||||||||||||||||||    ] 93% [||||||||||||||||||||||||||||||||||||||||||||||||||||||||    ] 93% [||||||||||||||||||||||||||||||||||||||||||||||||||||||||    ] 93% [||||||||||||||||||||||||||||||||||||||||||||||||||||||||    ] 94% [||||||||||||||||||||||||||||||||||||||||||||||||||||||||    ] 94% [||||||||||||||||||||||||||||||||||||||||||||||||||||||||    ] 94% [||||||||||||||||||||||||||||||||||||||||||||||||||||||||    ] 94% [||||||||||||||||||||||||||||||||||||||||||||||||||||||||    ] 94% [||||||||||||||||||||||||||||||||||||||||||||||||||||||||    ] 94% [||||||||||||||||||||||||||||||||||||||||||||||||||||||||    ] 94% [||||||||||||||||||||||||||||||||||||||||||||||||||||||||    ] 94% [||||||||||||||||||||||||||||||||||||||||||||||||||||||||    ] 94% [||||||||||||||||||||||||||||||||||||||||||||||||||||||||    ] 94% [||||||||||||||||||||||||||||||||||||||||||||||||||||||||    ] 95% [|||||||||||||||||||||||||||||||||||||||||||||||||||||||||   ] 95% [|||||||||||||||||||||||||||||||||||||||||||||||||||||||||   ] 95% [|||||||||||||||||||||||||||||||||||||||||||||||||||||||||   ] 95% [|||||||||||||||||||||||||||||||||||||||||||||||||||||||||   ] 95% [|||||||||||||||||||||||||||||||||||||||||||||||||||||||||   ] 95% [|||||||||||||||||||||||||||||||||||||||||||||||||||||||||   ] 95% [|||||||||||||||||||||||||||||||||||||||||||||||||||||||||   ] 95% [|||||||||||||||||||||||||||||||||||||||||||||||||||||||||   ] 95% [|||||||||||||||||||||||||||||||||||||||||||||||||||||||||   ] 95% [|||||||||||||||||||||||||||||||||||||||||||||||||||||||||   ] 96% [|||||||||||||||||||||||||||||||||||||||||||||||||||||||||   ] 96% [|||||||||||||||||||||||||||||||||||||||||||||||||||||||||   ] 96% [|||||||||||||||||||||||||||||||||||||||||||||||||||||||||   ] 96% [|||||||||||||||||||||||||||||||||||||||||||||||||||||||||   ] 96% [|||||||||||||||||||||||||||||||||||||||||||||||||||||||||   ] 96% [|||||||||||||||||||||||||||||||||||||||||||||||||||||||||   ] 96% [|||||||||||||||||||||||||||||||||||||||||||||||||||||||||   ] 96% [||||||||||||||||||||||||||||||||||||||||||||||||||||||||||  ] 96% [||||||||||||||||||||||||||||||||||||||||||||||||||||||||||  ] 96% [||||||||||||||||||||||||||||||||||||||||||||||||||||||||||  ] 97% [||||||||||||||||||||||||||||||||||||||||||||||||||||||||||  ] 97% [||||||||||||||||||||||||||||||||||||||||||||||||||||||||||  ] 97% [||||||||||||||||||||||||||||||||||||||||||||||||||||||||||  ] 97% [||||||||||||||||||||||||||||||||||||||||||||||||||||||||||  ] 97% [||||||||||||||||||||||||||||||||||||||||||||||||||||||||||  ] 97% [||||||||||||||||||||||||||||||||||||||||||||||||||||||||||  ] 97% [||||||||||||||||||||||||||||||||||||||||||||||||||||||||||  ] 97% [||||||||||||||||||||||||||||||||||||||||||||||||||||||||||  ] 97% [||||||||||||||||||||||||||||||||||||||||||||||||||||||||||  ] 97% [||||||||||||||||||||||||||||||||||||||||||||||||||||||||||  ] 98% [||||||||||||||||||||||||||||||||||||||||||||||||||||||||||  ] 98% [||||||||||||||||||||||||||||||||||||||||||||||||||||||||||  ] 98% [||||||||||||||||||||||||||||||||||||||||||||||||||||||||||  ] 98% [||||||||||||||||||||||||||||||||||||||||||||||||||||||||||  ] 98% [||||||||||||||||||||||||||||||||||||||||||||||||||||||||||| ] 98% [||||||||||||||||||||||||||||||||||||||||||||||||||||||||||| ] 98% [||||||||||||||||||||||||||||||||||||||||||||||||||||||||||| ] 98% [||||||||||||||||||||||||||||||||||||||||||||||||||||||||||| ] 98% [||||||||||||||||||||||||||||||||||||||||||||||||||||||||||| ] 98% [||||||||||||||||||||||||||||||||||||||||||||||||||||||||||| ] 99% [||||||||||||||||||||||||||||||||||||||||||||||||||||||||||| ] 99% [||||||||||||||||||||||||||||||||||||||||||||||||||||||||||| ] 99% [||||||||||||||||||||||||||||||||||||||||||||||||||||||||||| ] 99% [||||||||||||||||||||||||||||||||||||||||||||||||||||||||||| ] 99% [||||||||||||||||||||||||||||||||||||||||||||||||||||||||||| ] 99% [||||||||||||||||||||||||||||||||||||||||||||||||||||||||||| ] 99% [||||||||||||||||||||||||||||||||||||||||||||||||||||||||||| ] 99% [||||||||||||||||||||||||||||||||||||||||||||||||||||||||||| ] 99% [||||||||||||||||||||||||||||||||||||||||||||||||||||||||||| ] 99% [||||||||||||||||||||||||||||||||||||||||||||||||||||||||||| ]100% [||||||||||||||||||||||||||||||||||||||||||||||||||||||||||||]
####### Performing the POD using EigenDecomposition U #######
Using Eigen EigenSolver 
####### End of the POD for U #######
####### Saving the POD bases for U #######
######### Exporting the Data for U #########
 10% [||||||                                                      ] 20% [||||||||||||                                                ] 30% [||||||||||||||||||                                          ] 40% [||||||||||||||||||||||||                                    ] 50% [||||||||||||||||||||||||||||||                              ] 60% [||||||||||||||||||||||||||||||||||||                        ] 70% [||||||||||||||||||||||||||||||||||||||||||                  ] 80% [||||||||||||||||||||||||||||||||||||||||||||||||            ] 90% [||||||||||||||||||||||||||||||||||||||||||||||||||||||      ]100% [||||||||||||||||||||||||||||||||||||||||||||||||||||||||||||]
####### Performing the POD using EigenDecomposition p #######
Using Eigen EigenSolver 
####### End of the POD for p #######
####### Saving the POD bases for p #######
######### Exporting the Data for p #########
 10% [||||||                                                      ] 20% [||||||||||||                                                ] 30% [||||||||||||||||||                                          ] 40% [||||||||||||||||||||||||                                    ] 50% [||||||||||||||||||||||||||||||                              ] 60% [||||||||||||||||||||||||||||||||||||                        ] 70% [||||||||||||||||||||||||||||||||||||||||||                  ] 80% [||||||||||||||||||||||||||||||||||||||||||||||||            ] 90% [||||||||||||||||||||||||||||||||||||||||||||||||||||||      ]100% [||||||||||||||||||||||||||||||||||||||||||||||||||||||||||||]
elapsed_POD: 44.6751 seconds.
