/*---------------------------------------------------------------------------*\
  =========                 |
  \\      /  F ield         | OpenFOAM: The Open Source CFD Toolbox
   \\    /   O peration     | Website:  https://openfoam.org
    \\  /    A nd           | Version:  6
     \\/     M anipulation  |
\*---------------------------------------------------------------------------*/
Build  : 6
Exec   : LidDrivenCavity
Date   : Aug 07 2019
Time   : 14:25:57
Host   : "cfdclu17.ugent.be"
PID    : 20543
I/O    : uncollated
Case   : /cfdfile2/data/fm/sabrina/ITHACA-FV/tutorials/LidDrivenCavity
nProcs : 1
sigFpe : Enabling floating point exception trapping (FOAM_SIGFPE).
fileModificationChecking : Monitoring run-time modified files using timeStampMaster (fileModificationSkew 10)
allowSystemOperations : Allowing user-supplied system call operations

// * * * * * * * * * * * * * * * * * * * * * * * * * * * * * * * * * * * * * //
Reading field p

Create time

Reading field p

Create mesh for time = 0


PIMPLE: No convergence criteria found


PIMPLE: Operating solver in PISO mode

Reading field p

Reading field U

Reading/calculating face flux field phi

Selecting incompressible transport model Newtonian
Selecting turbulence model type laminar
Selecting laminar stress model Stokes
No MRF models present

Reading field p

Offline data already exist, reading existing data
POD don't exist, performing a POD decomposition
Supremizers don't exist, performing a POD decomposition
######### Reading the Data for U #########
  0% [                                                            ]  0% [                                                            ]  0% [                                                            ]  0% [                                                            ]  0% [                                                            ]  0% [                                                            ]  0% [                                                            ]  0% [                                                            ]  1% [                                                            ]  1% [                                                            ]  1% [                                                            ]  1% [                                                            ]  1% [                                                            ]  1% [                                                            ]  1% [|                                                           ]  1% [|                                                           ]  1% [|                                                           ]  1% [|                                                           ]  2% [|                                                           ]  2% [|                                                           ]  2% [|                                                           ]  2% [|                                                           ]  2% [|                                                           ]  2% [|                                                           ]  2% [|                                                           ]  2% [|                                                           ]  2% [|                                                           ]  2% [|                                                           ]  3% [|                                                           ]  3% [|                                                           ]  3% [|                                                           ]  3% [||                                                          ]  3% [||                                                          ]  3% [||                                                          ]  3% [||                                                          ]  3% [||                                                          ]  3% [||                                                          ]  3% [||                                                          ]  4% [||                                                          ]  4% [||                                                          ]  4% [||                                                          ]  4% [||                                                          ]  4% [||                                                          ]  4% [||                                                          ]  4% [||                                                          ]  4% [||                                                          ]  4% [||                                                          ]  4% [||                                                          ]  5% [|||                                                         ]  5% [|||                                                         ]  5% [|||                                                         ]  5% [|||                                                         ]  5% [|||                                                         ]  5% [|||                                                         ]  5% [|||                                                         ]  5% [|||                                                         ]  5% [|||                                                         ]  5% [|||                                                         ]  6% [|||                                                         ]  6% [|||                                                         ]  6% [|||                                                         ]  6% [|||                                                         ]  6% [|||                                                         ]  6% [|||                                                         ]  6% [||||                                                        ]  6% [||||                                                        ]  6% [||||                                                        ]  6% [||||                                                        ]  7% [||||                                                        ]  7% [||||                                                        ]  7% [||||                                                        ]  7% [||||                                                        ]  7% [||||                                                        ]  7% [||||                                                        ]  7% [||||                                                        ]  7% [||||                                                        ]  7% [||||                                                        ]  7% [||||                                                        ]  8% [||||                                                        ]  8% [||||                                                        ]  8% [||||                                                        ]  8% [|||||                                                       ]  8% [|||||                                                       ]  8% [|||||                                                       ]  8% [|||||                                                       ]  8% [|||||                                                       ]  8% [|||||                                                       ]  8% [|||||                                                       ]  9% [|||||                                                       ]  9% [|||||                                                       ]  9% [|||||                                                       ]  9% [|||||                                                       ]  9% [|||||                                                       ]  9% [|||||                                                       ]  9% [|||||                                                       ]  9% [|||||                                                       ]  9% [|||||                                                       ]  9% [|||||                                                       ] 10% [||||||                                                      ] 10% [||||||                                                      ] 10% [||||||                                                      ] 10% [||||||                                                      ] 10% [||||||                                                      ] 10% [||||||                                                      ] 10% [||||||                                                      ] 10% [||||||                                                      ] 10% [||||||                                                      ] 10% [||||||                                                      ] 11% [||||||                                                      ] 11% [||||||                                                      ] 11% [||||||                                                      ] 11% [||||||                                                      ] 11% [||||||                                                      ] 11% [||||||                                                      ] 11% [||||||                                                      ] 11% [|||||||                                                     ] 11% [|||||||                                                     ] 11% [|||||||                                                     ] 12% [|||||||                                                     ] 12% [|||||||                                                     ] 12% [|||||||                                                     ] 12% [|||||||                                                     ] 12% [|||||||                                                     ] 12% [|||||||                                                     ] 12% [|||||||                                                     ] 12% [|||||||                                                     ] 12% [|||||||                                                     ] 12% [|||||||                                                     ] 13% [|||||||                                                     ] 13% [|||||||                                                     ] 13% [|||||||                                                     ] 13% [||||||||                                                    ] 13% [||||||||                                                    ] 13% [||||||||                                                    ] 13% [||||||||                                                    ] 13% [||||||||                                                    ] 13% [||||||||                                                    ] 13% [||||||||                                                    ] 14% [||||||||                                                    ] 14% [||||||||                                                    ] 14% [||||||||                                                    ] 14% [||||||||                                                    ] 14% [||||||||                                                    ] 14% [||||||||                                                    ] 14% [||||||||                                                    ] 14% [||||||||                                                    ] 14% [||||||||                                                    ] 14% [||||||||                                                    ] 15% [|||||||||                                                   ] 15% [|||||||||                                                   ] 15% [|||||||||                                                   ] 15% [|||||||||                                                   ] 15% [|||||||||                                                   ] 15% [|||||||||                                                   ] 15% [|||||||||                                                   ] 15% [|||||||||                                                   ] 15% [|||||||||                                                   ] 15% [|||||||||                                                   ] 16% [|||||||||                                                   ] 16% [|||||||||                                                   ] 16% [|||||||||                                                   ] 16% [|||||||||                                                   ] 16% [|||||||||                                                   ] 16% [|||||||||                                                   ] 16% [|||||||||                                                   ] 16% [||||||||||                                                  ] 16% [||||||||||                                                  ] 16% [||||||||||                                                  ] 17% [||||||||||                                                  ] 17% [||||||||||                                                  ] 17% [||||||||||                                                  ] 17% [||||||||||                                                  ] 17% [||||||||||                                                  ] 17% [||||||||||                                                  ] 17% [||||||||||                                                  ] 17% [||||||||||                                                  ] 17% [||||||||||                                                  ] 17% [||||||||||                                                  ] 18% [||||||||||                                                  ] 18% [||||||||||                                                  ] 18% [||||||||||                                                  ] 18% [|||||||||||                                                 ] 18% [|||||||||||                                                 ] 18% [|||||||||||                                                 ] 18% [|||||||||||                                                 ] 18% [|||||||||||                                                 ] 18% [|||||||||||                                                 ] 18% [|||||||||||                                                 ] 19% [|||||||||||                                                 ] 19% [|||||||||||                                                 ] 19% [|||||||||||                                                 ] 19% [|||||||||||                                                 ] 19% [|||||||||||                                                 ] 19% [|||||||||||                                                 ] 19% [|||||||||||                                                 ] 19% [|||||||||||                                                 ] 19% [|||||||||||                                                 ] 19% [|||||||||||                                                 ] 20% [||||||||||||                                                ] 20% [||||||||||||                                                ] 20% [||||||||||||                                                ] 20% [||||||||||||                                                ] 20% [||||||||||||                                                ] 20% [||||||||||||                                                ] 20% [||||||||||||                                                ] 20% [||||||||||||                                                ] 20% [||||||||||||                                                ] 20% [||||||||||||                                                ] 21% [||||||||||||                                                ] 21% [||||||||||||                                                ] 21% [||||||||||||                                                ] 21% [||||||||||||                                                ] 21% [||||||||||||                                                ] 21% [||||||||||||                                                ] 21% [||||||||||||                                                ] 21% [|||||||||||||                                               ] 21% [|||||||||||||                                               ] 21% [|||||||||||||                                               ] 22% [|||||||||||||                                               ] 22% [|||||||||||||                                               ] 22% [|||||||||||||                                               ] 22% [|||||||||||||                                               ] 22% [|||||||||||||                                               ] 22% [|||||||||||||                                               ] 22% [|||||||||||||                                               ] 22% [|||||||||||||                                               ] 22% [|||||||||||||                                               ] 22% [|||||||||||||                                               ] 23% [|||||||||||||                                               ] 23% [|||||||||||||                                               ] 23% [|||||||||||||                                               ] 23% [|||||||||||||                                               ] 23% [||||||||||||||                                              ] 23% [||||||||||||||                                              ] 23% [||||||||||||||                                              ] 23% [||||||||||||||                                              ] 23% [||||||||||||||                                              ] 23% [||||||||||||||                                              ] 24% [||||||||||||||                                              ] 24% [||||||||||||||                                              ] 24% [||||||||||||||                                              ] 24% [||||||||||||||                                              ] 24% [||||||||||||||                                              ] 24% [||||||||||||||                                              ] 24% [||||||||||||||                                              ] 24% [||||||||||||||                                              ] 24% [||||||||||||||                                              ] 24% [||||||||||||||                                              ] 25% [|||||||||||||||                                             ] 25% [|||||||||||||||                                             ] 25% [|||||||||||||||                                             ] 25% [|||||||||||||||                                             ] 25% [|||||||||||||||                                             ] 25% [|||||||||||||||                                             ] 25% [|||||||||||||||                                             ] 25% [|||||||||||||||                                             ] 25% [|||||||||||||||                                             ] 25% [|||||||||||||||                                             ] 26% [|||||||||||||||                                             ] 26% [|||||||||||||||                                             ] 26% [|||||||||||||||                                             ] 26% [|||||||||||||||                                             ] 26% [|||||||||||||||                                             ] 26% [|||||||||||||||                                             ] 26% [|||||||||||||||                                             ] 26% [||||||||||||||||                                            ] 26% [||||||||||||||||                                            ] 26% [||||||||||||||||                                            ] 27% [||||||||||||||||                                            ] 27% [||||||||||||||||                                            ] 27% [||||||||||||||||                                            ] 27% [||||||||||||||||                                            ] 27% [||||||||||||||||                                            ] 27% [||||||||||||||||                                            ] 27% [||||||||||||||||                                            ] 27% [||||||||||||||||                                            ] 27% [||||||||||||||||                                            ] 27% [||||||||||||||||                                            ] 28% [||||||||||||||||                                            ] 28% [||||||||||||||||                                            ] 28% [||||||||||||||||                                            ] 28% [||||||||||||||||                                            ] 28% [|||||||||||||||||                                           ] 28% [|||||||||||||||||                                           ] 28% [|||||||||||||||||                                           ] 28% [|||||||||||||||||                                           ] 28% [|||||||||||||||||                                           ] 28% [|||||||||||||||||                                           ] 29% [|||||||||||||||||                                           ] 29% [|||||||||||||||||                                           ] 29% [|||||||||||||||||                                           ] 29% [|||||||||||||||||                                           ] 29% [|||||||||||||||||                                           ] 29% [|||||||||||||||||                                           ] 29% [|||||||||||||||||                                           ] 29% [|||||||||||||||||                                           ] 29% [|||||||||||||||||                                           ] 29% [|||||||||||||||||                                           ] 30% [||||||||||||||||||                                          ] 30% [||||||||||||||||||                                          ] 30% [||||||||||||||||||                                          ] 30% [||||||||||||||||||                                          ] 30% [||||||||||||||||||                                          ] 30% [||||||||||||||||||                                          ] 30% [||||||||||||||||||                                          ] 30% [||||||||||||||||||                                          ] 30% [||||||||||||||||||                                          ] 30% [||||||||||||||||||                                          ] 31% [||||||||||||||||||                                          ] 31% [||||||||||||||||||                                          ] 31% [||||||||||||||||||                                          ] 31% [||||||||||||||||||                                          ] 31% [||||||||||||||||||                                          ] 31% [||||||||||||||||||                                          ] 31% [||||||||||||||||||                                          ] 31% [|||||||||||||||||||                                         ] 31% [|||||||||||||||||||                                         ] 31% [|||||||||||||||||||                                         ] 32% [|||||||||||||||||||                                         ] 32% [|||||||||||||||||||                                         ] 32% [|||||||||||||||||||                                         ] 32% [|||||||||||||||||||                                         ] 32% [|||||||||||||||||||                                         ] 32% [|||||||||||||||||||                                         ] 32% [|||||||||||||||||||                                         ] 32% [|||||||||||||||||||                                         ] 32% [|||||||||||||||||||                                         ] 32% [|||||||||||||||||||                                         ] 33% [|||||||||||||||||||                                         ] 33% [|||||||||||||||||||                                         ] 33% [|||||||||||||||||||                                         ] 33% [|||||||||||||||||||                                         ] 33% [||||||||||||||||||||                                        ] 33% [||||||||||||||||||||                                        ] 33% [||||||||||||||||||||                                        ] 33% [||||||||||||||||||||                                        ] 33% [||||||||||||||||||||                                        ] 33% [||||||||||||||||||||                                        ] 33% [||||||||||||||||||||                                        ] 34% [||||||||||||||||||||                                        ] 34% [||||||||||||||||||||                                        ] 34% [||||||||||||||||||||                                        ] 34% [||||||||||||||||||||                                        ] 34% [||||||||||||||||||||                                        ] 34% [||||||||||||||||||||                                        ] 34% [||||||||||||||||||||                                        ] 34% [||||||||||||||||||||                                        ] 34% [||||||||||||||||||||                                        ] 34% [||||||||||||||||||||                                        ] 35% [|||||||||||||||||||||                                       ] 35% [|||||||||||||||||||||                                       ] 35% [|||||||||||||||||||||                                       ] 35% [|||||||||||||||||||||                                       ] 35% [|||||||||||||||||||||                                       ] 35% [|||||||||||||||||||||                                       ] 35% [|||||||||||||||||||||                                       ] 35% [|||||||||||||||||||||                                       ] 35% [|||||||||||||||||||||                                       ] 35% [|||||||||||||||||||||                                       ] 36% [|||||||||||||||||||||                                       ] 36% [|||||||||||||||||||||                                       ] 36% [|||||||||||||||||||||                                       ] 36% [|||||||||||||||||||||                                       ] 36% [|||||||||||||||||||||                                       ] 36% [|||||||||||||||||||||                                       ] 36% [||||||||||||||||||||||                                      ] 36% [||||||||||||||||||||||                                      ] 36% [||||||||||||||||||||||                                      ] 36% [||||||||||||||||||||||                                      ] 37% [||||||||||||||||||||||                                      ] 37% [||||||||||||||||||||||                                      ] 37% [||||||||||||||||||||||                                      ] 37% [||||||||||||||||||||||                                      ] 37% [||||||||||||||||||||||                                      ] 37% [||||||||||||||||||||||                                      ] 37% [||||||||||||||||||||||                                      ] 37% [||||||||||||||||||||||                                      ] 37% [||||||||||||||||||||||                                      ] 37% [||||||||||||||||||||||                                      ] 38% [||||||||||||||||||||||                                      ] 38% [||||||||||||||||||||||                                      ] 38% [||||||||||||||||||||||                                      ] 38% [|||||||||||||||||||||||                                     ] 38% [|||||||||||||||||||||||                                     ] 38% [|||||||||||||||||||||||                                     ] 38% [|||||||||||||||||||||||                                     ] 38% [|||||||||||||||||||||||                                     ] 38% [|||||||||||||||||||||||                                     ] 38% [|||||||||||||||||||||||                                     ] 39% [|||||||||||||||||||||||                                     ] 39% [|||||||||||||||||||||||                                     ] 39% [|||||||||||||||||||||||                                     ] 39% [|||||||||||||||||||||||                                     ] 39% [|||||||||||||||||||||||                                     ] 39% [|||||||||||||||||||||||                                     ] 39% [|||||||||||||||||||||||                                     ] 39% [|||||||||||||||||||||||                                     ] 39% [|||||||||||||||||||||||                                     ] 39% [|||||||||||||||||||||||                                     ] 40% [||||||||||||||||||||||||                                    ] 40% [||||||||||||||||||||||||                                    ] 40% [||||||||||||||||||||||||                                    ] 40% [||||||||||||||||||||||||                                    ] 40% [||||||||||||||||||||||||                                    ] 40% [||||||||||||||||||||||||                                    ] 40% [||||||||||||||||||||||||                                    ] 40% [||||||||||||||||||||||||                                    ] 40% [||||||||||||||||||||||||                                    ] 40% [||||||||||||||||||||||||                                    ] 41% [||||||||||||||||||||||||                                    ] 41% [||||||||||||||||||||||||                                    ] 41% [||||||||||||||||||||||||                                    ] 41% [||||||||||||||||||||||||                                    ] 41% [||||||||||||||||||||||||                                    ] 41% [||||||||||||||||||||||||                                    ] 41% [|||||||||||||||||||||||||                                   ] 41% [|||||||||||||||||||||||||                                   ] 41% [|||||||||||||||||||||||||                                   ] 41% [|||||||||||||||||||||||||                                   ] 42% [|||||||||||||||||||||||||                                   ] 42% [|||||||||||||||||||||||||                                   ] 42% [|||||||||||||||||||||||||                                   ] 42% [|||||||||||||||||||||||||                                   ] 42% [|||||||||||||||||||||||||                                   ] 42% [|||||||||||||||||||||||||                                   ] 42% [|||||||||||||||||||||||||                                   ] 42% [|||||||||||||||||||||||||                                   ] 42% [|||||||||||||||||||||||||                                   ] 42% [|||||||||||||||||||||||||                                   ] 43% [|||||||||||||||||||||||||                                   ] 43% [|||||||||||||||||||||||||                                   ] 43% [|||||||||||||||||||||||||                                   ] 43% [||||||||||||||||||||||||||                                  ] 43% [||||||||||||||||||||||||||                                  ] 43% [||||||||||||||||||||||||||                                  ] 43% [||||||||||||||||||||||||||                                  ] 43% [||||||||||||||||||||||||||                                  ] 43% [||||||||||||||||||||||||||                                  ] 43% [||||||||||||||||||||||||||                                  ] 44% [||||||||||||||||||||||||||                                  ] 44% [||||||||||||||||||||||||||                                  ] 44% [||||||||||||||||||||||||||                                  ] 44% [||||||||||||||||||||||||||                                  ] 44% [||||||||||||||||||||||||||                                  ] 44% [||||||||||||||||||||||||||                                  ] 44% [||||||||||||||||||||||||||                                  ] 44% [||||||||||||||||||||||||||                                  ] 44% [||||||||||||||||||||||||||                                  ] 44% [||||||||||||||||||||||||||                                  ] 45% [|||||||||||||||||||||||||||                                 ] 45% [|||||||||||||||||||||||||||                                 ] 45% [|||||||||||||||||||||||||||                                 ] 45% [|||||||||||||||||||||||||||                                 ] 45% [|||||||||||||||||||||||||||                                 ] 45% [|||||||||||||||||||||||||||                                 ] 45% [|||||||||||||||||||||||||||                                 ] 45% [|||||||||||||||||||||||||||                                 ] 45% [|||||||||||||||||||||||||||                                 ] 45% [|||||||||||||||||||||||||||                                 ] 46% [|||||||||||||||||||||||||||                                 ] 46% [|||||||||||||||||||||||||||                                 ] 46% [|||||||||||||||||||||||||||                                 ] 46% [|||||||||||||||||||||||||||                                 ] 46% [|||||||||||||||||||||||||||                                 ] 46% [|||||||||||||||||||||||||||                                 ] 46% [|||||||||||||||||||||||||||                                 ] 46% [||||||||||||||||||||||||||||                                ] 46% [||||||||||||||||||||||||||||                                ] 46% [||||||||||||||||||||||||||||                                ] 47% [||||||||||||||||||||||||||||                                ] 47% [||||||||||||||||||||||||||||                                ] 47% [||||||||||||||||||||||||||||                                ] 47% [||||||||||||||||||||||||||||                                ] 47% [||||||||||||||||||||||||||||                                ] 47% [||||||||||||||||||||||||||||                                ] 47% [||||||||||||||||||||||||||||                                ] 47% [||||||||||||||||||||||||||||                                ] 47% [||||||||||||||||||||||||||||                                ] 47% [||||||||||||||||||||||||||||                                ] 48% [||||||||||||||||||||||||||||                                ] 48% [||||||||||||||||||||||||||||                                ] 48% [||||||||||||||||||||||||||||                                ] 48% [|||||||||||||||||||||||||||||                               ] 48% [|||||||||||||||||||||||||||||                               ] 48% [|||||||||||||||||||||||||||||                               ] 48% [|||||||||||||||||||||||||||||                               ] 48% [|||||||||||||||||||||||||||||                               ] 48% [|||||||||||||||||||||||||||||                               ] 48% [|||||||||||||||||||||||||||||                               ] 49% [|||||||||||||||||||||||||||||                               ] 49% [|||||||||||||||||||||||||||||                               ] 49% [|||||||||||||||||||||||||||||                               ] 49% [|||||||||||||||||||||||||||||                               ] 49% [|||||||||||||||||||||||||||||                               ] 49% [|||||||||||||||||||||||||||||                               ] 49% [|||||||||||||||||||||||||||||                               ] 49% [|||||||||||||||||||||||||||||                               ] 49% [|||||||||||||||||||||||||||||                               ] 49% [|||||||||||||||||||||||||||||                               ] 50% [||||||||||||||||||||||||||||||                              ] 50% [||||||||||||||||||||||||||||||                              ] 50% [||||||||||||||||||||||||||||||                              ] 50% [||||||||||||||||||||||||||||||                              ] 50% [||||||||||||||||||||||||||||||                              ] 50% [||||||||||||||||||||||||||||||                              ] 50% [||||||||||||||||||||||||||||||                              ] 50% [||||||||||||||||||||||||||||||                              ] 50% [||||||||||||||||||||||||||||||                              ] 50% [||||||||||||||||||||||||||||||                              ] 51% [||||||||||||||||||||||||||||||                              ] 51% [||||||||||||||||||||||||||||||                              ] 51% [||||||||||||||||||||||||||||||                              ] 51% [||||||||||||||||||||||||||||||                              ] 51% [||||||||||||||||||||||||||||||                              ] 51% [||||||||||||||||||||||||||||||                              ] 51% [||||||||||||||||||||||||||||||                              ] 51% [|||||||||||||||||||||||||||||||                             ] 51% [|||||||||||||||||||||||||||||||                             ] 51% [|||||||||||||||||||||||||||||||                             ] 52% [|||||||||||||||||||||||||||||||                             ] 52% [|||||||||||||||||||||||||||||||                             ] 52% [|||||||||||||||||||||||||||||||                             ] 52% [|||||||||||||||||||||||||||||||                             ] 52% [|||||||||||||||||||||||||||||||                             ] 52% [|||||||||||||||||||||||||||||||                             ] 52% [|||||||||||||||||||||||||||||||                             ] 52% [|||||||||||||||||||||||||||||||                             ] 52% [|||||||||||||||||||||||||||||||                             ] 52% [|||||||||||||||||||||||||||||||                             ] 53% [|||||||||||||||||||||||||||||||                             ] 53% [|||||||||||||||||||||||||||||||                             ] 53% [|||||||||||||||||||||||||||||||                             ] 53% [||||||||||||||||||||||||||||||||                            ] 53% [||||||||||||||||||||||||||||||||                            ] 53% [||||||||||||||||||||||||||||||||                            ] 53% [||||||||||||||||||||||||||||||||                            ] 53% [||||||||||||||||||||||||||||||||                            ] 53% [||||||||||||||||||||||||||||||||                            ] 53% [||||||||||||||||||||||||||||||||                            ] 54% [||||||||||||||||||||||||||||||||                            ] 54% [||||||||||||||||||||||||||||||||                            ] 54% [||||||||||||||||||||||||||||||||                            ] 54% [||||||||||||||||||||||||||||||||                            ] 54% [||||||||||||||||||||||||||||||||                            ] 54% [||||||||||||||||||||||||||||||||                            ] 54% [||||||||||||||||||||||||||||||||                            ] 54% [||||||||||||||||||||||||||||||||                            ] 54% [||||||||||||||||||||||||||||||||                            ] 54% [||||||||||||||||||||||||||||||||                            ] 55% [|||||||||||||||||||||||||||||||||                           ] 55% [|||||||||||||||||||||||||||||||||                           ] 55% [|||||||||||||||||||||||||||||||||                           ] 55% [|||||||||||||||||||||||||||||||||                           ] 55% [|||||||||||||||||||||||||||||||||                           ] 55% [|||||||||||||||||||||||||||||||||                           ] 55% [|||||||||||||||||||||||||||||||||                           ] 55% [|||||||||||||||||||||||||||||||||                           ] 55% [|||||||||||||||||||||||||||||||||                           ] 55% [|||||||||||||||||||||||||||||||||                           ] 56% [|||||||||||||||||||||||||||||||||                           ] 56% [|||||||||||||||||||||||||||||||||                           ] 56% [|||||||||||||||||||||||||||||||||                           ] 56% [|||||||||||||||||||||||||||||||||                           ] 56% [|||||||||||||||||||||||||||||||||                           ] 56% [|||||||||||||||||||||||||||||||||                           ] 56% [|||||||||||||||||||||||||||||||||                           ] 56% [||||||||||||||||||||||||||||||||||                          ] 56% [||||||||||||||||||||||||||||||||||                          ] 56% [||||||||||||||||||||||||||||||||||                          ] 57% [||||||||||||||||||||||||||||||||||                          ] 57% [||||||||||||||||||||||||||||||||||                          ] 57% [||||||||||||||||||||||||||||||||||                          ] 57% [||||||||||||||||||||||||||||||||||                          ] 57% [||||||||||||||||||||||||||||||||||                          ] 57% [||||||||||||||||||||||||||||||||||                          ] 57% [||||||||||||||||||||||||||||||||||                          ] 57% [||||||||||||||||||||||||||||||||||                          ] 57% [||||||||||||||||||||||||||||||||||                          ] 57% [||||||||||||||||||||||||||||||||||                          ] 58% [||||||||||||||||||||||||||||||||||                          ] 58% [||||||||||||||||||||||||||||||||||                          ] 58% [||||||||||||||||||||||||||||||||||                          ] 58% [||||||||||||||||||||||||||||||||||                          ] 58% [|||||||||||||||||||||||||||||||||||                         ] 58% [|||||||||||||||||||||||||||||||||||                         ] 58% [|||||||||||||||||||||||||||||||||||                         ] 58% [|||||||||||||||||||||||||||||||||||                         ] 58% [|||||||||||||||||||||||||||||||||||                         ] 58% [|||||||||||||||||||||||||||||||||||                         ] 59% [|||||||||||||||||||||||||||||||||||                         ] 59% [|||||||||||||||||||||||||||||||||||                         ] 59% [|||||||||||||||||||||||||||||||||||                         ] 59% [|||||||||||||||||||||||||||||||||||                         ] 59% [|||||||||||||||||||||||||||||||||||                         ] 59% [|||||||||||||||||||||||||||||||||||                         ] 59% [|||||||||||||||||||||||||||||||||||                         ] 59% [|||||||||||||||||||||||||||||||||||                         ] 59% [|||||||||||||||||||||||||||||||||||                         ] 59% [|||||||||||||||||||||||||||||||||||                         ] 60% [||||||||||||||||||||||||||||||||||||                        ] 60% [||||||||||||||||||||||||||||||||||||                        ] 60% [||||||||||||||||||||||||||||||||||||                        ] 60% [||||||||||||||||||||||||||||||||||||                        ] 60% [||||||||||||||||||||||||||||||||||||                        ] 60% [||||||||||||||||||||||||||||||||||||                        ] 60% [||||||||||||||||||||||||||||||||||||                        ] 60% [||||||||||||||||||||||||||||||||||||                        ] 60% [||||||||||||||||||||||||||||||||||||                        ] 60% [||||||||||||||||||||||||||||||||||||                        ] 61% [||||||||||||||||||||||||||||||||||||                        ] 61% [||||||||||||||||||||||||||||||||||||                        ] 61% [||||||||||||||||||||||||||||||||||||                        ] 61% [||||||||||||||||||||||||||||||||||||                        ] 61% [||||||||||||||||||||||||||||||||||||                        ] 61% [||||||||||||||||||||||||||||||||||||                        ] 61% [||||||||||||||||||||||||||||||||||||                        ] 61% [|||||||||||||||||||||||||||||||||||||                       ] 61% [|||||||||||||||||||||||||||||||||||||                       ] 61% [|||||||||||||||||||||||||||||||||||||                       ] 62% [|||||||||||||||||||||||||||||||||||||                       ] 62% [|||||||||||||||||||||||||||||||||||||                       ] 62% [|||||||||||||||||||||||||||||||||||||                       ] 62% [|||||||||||||||||||||||||||||||||||||                       ] 62% [|||||||||||||||||||||||||||||||||||||                       ] 62% [|||||||||||||||||||||||||||||||||||||                       ] 62% [|||||||||||||||||||||||||||||||||||||                       ] 62% [|||||||||||||||||||||||||||||||||||||                       ] 62% [|||||||||||||||||||||||||||||||||||||                       ] 62% [|||||||||||||||||||||||||||||||||||||                       ] 63% [|||||||||||||||||||||||||||||||||||||                       ] 63% [|||||||||||||||||||||||||||||||||||||                       ] 63% [|||||||||||||||||||||||||||||||||||||                       ] 63% [|||||||||||||||||||||||||||||||||||||                       ] 63% [||||||||||||||||||||||||||||||||||||||                      ] 63% [||||||||||||||||||||||||||||||||||||||                      ] 63% [||||||||||||||||||||||||||||||||||||||                      ] 63% [||||||||||||||||||||||||||||||||||||||                      ] 63% [||||||||||||||||||||||||||||||||||||||                      ] 63% [||||||||||||||||||||||||||||||||||||||                      ] 64% [||||||||||||||||||||||||||||||||||||||                      ] 64% [||||||||||||||||||||||||||||||||||||||                      ] 64% [||||||||||||||||||||||||||||||||||||||                      ] 64% [||||||||||||||||||||||||||||||||||||||                      ] 64% [||||||||||||||||||||||||||||||||||||||                      ] 64% [||||||||||||||||||||||||||||||||||||||                      ] 64% [||||||||||||||||||||||||||||||||||||||                      ] 64% [||||||||||||||||||||||||||||||||||||||                      ] 64% [||||||||||||||||||||||||||||||||||||||                      ] 64% [||||||||||||||||||||||||||||||||||||||                      ] 65% [|||||||||||||||||||||||||||||||||||||||                     ] 65% [|||||||||||||||||||||||||||||||||||||||                     ] 65% [|||||||||||||||||||||||||||||||||||||||                     ] 65% [|||||||||||||||||||||||||||||||||||||||                     ] 65% [|||||||||||||||||||||||||||||||||||||||                     ] 65% [|||||||||||||||||||||||||||||||||||||||                     ] 65% [|||||||||||||||||||||||||||||||||||||||                     ] 65% [|||||||||||||||||||||||||||||||||||||||                     ] 65% [|||||||||||||||||||||||||||||||||||||||                     ] 65% [|||||||||||||||||||||||||||||||||||||||                     ] 66% [|||||||||||||||||||||||||||||||||||||||                     ] 66% [|||||||||||||||||||||||||||||||||||||||                     ] 66% [|||||||||||||||||||||||||||||||||||||||                     ] 66% [|||||||||||||||||||||||||||||||||||||||                     ] 66% [|||||||||||||||||||||||||||||||||||||||                     ] 66% [|||||||||||||||||||||||||||||||||||||||                     ] 66% [|||||||||||||||||||||||||||||||||||||||                     ] 66% [||||||||||||||||||||||||||||||||||||||||                    ] 66% [||||||||||||||||||||||||||||||||||||||||                    ] 66% [||||||||||||||||||||||||||||||||||||||||                    ] 66% [||||||||||||||||||||||||||||||||||||||||                    ] 67% [||||||||||||||||||||||||||||||||||||||||                    ] 67% [||||||||||||||||||||||||||||||||||||||||                    ] 67% [||||||||||||||||||||||||||||||||||||||||                    ] 67% [||||||||||||||||||||||||||||||||||||||||                    ] 67% [||||||||||||||||||||||||||||||||||||||||                    ] 67% [||||||||||||||||||||||||||||||||||||||||                    ] 67% [||||||||||||||||||||||||||||||||||||||||                    ] 67% [||||||||||||||||||||||||||||||||||||||||                    ] 67% [||||||||||||||||||||||||||||||||||||||||                    ] 67% [||||||||||||||||||||||||||||||||||||||||                    ] 68% [||||||||||||||||||||||||||||||||||||||||                    ] 68% [||||||||||||||||||||||||||||||||||||||||                    ] 68% [||||||||||||||||||||||||||||||||||||||||                    ] 68% [|||||||||||||||||||||||||||||||||||||||||                   ] 68% [|||||||||||||||||||||||||||||||||||||||||                   ] 68% [|||||||||||||||||||||||||||||||||||||||||                   ] 68% [|||||||||||||||||||||||||||||||||||||||||                   ] 68% [|||||||||||||||||||||||||||||||||||||||||                   ] 68% [|||||||||||||||||||||||||||||||||||||||||                   ] 68% [|||||||||||||||||||||||||||||||||||||||||                   ] 69% [|||||||||||||||||||||||||||||||||||||||||                   ] 69% [|||||||||||||||||||||||||||||||||||||||||                   ] 69% [|||||||||||||||||||||||||||||||||||||||||                   ] 69% [|||||||||||||||||||||||||||||||||||||||||                   ] 69% [|||||||||||||||||||||||||||||||||||||||||                   ] 69% [|||||||||||||||||||||||||||||||||||||||||                   ] 69% [|||||||||||||||||||||||||||||||||||||||||                   ] 69% [|||||||||||||||||||||||||||||||||||||||||                   ] 69% [|||||||||||||||||||||||||||||||||||||||||                   ] 69% [|||||||||||||||||||||||||||||||||||||||||                   ] 70% [||||||||||||||||||||||||||||||||||||||||||                  ] 70% [||||||||||||||||||||||||||||||||||||||||||                  ] 70% [||||||||||||||||||||||||||||||||||||||||||                  ] 70% [||||||||||||||||||||||||||||||||||||||||||                  ] 70% [||||||||||||||||||||||||||||||||||||||||||                  ] 70% [||||||||||||||||||||||||||||||||||||||||||                  ] 70% [||||||||||||||||||||||||||||||||||||||||||                  ] 70% [||||||||||||||||||||||||||||||||||||||||||                  ] 70% [||||||||||||||||||||||||||||||||||||||||||                  ] 70% [||||||||||||||||||||||||||||||||||||||||||                  ] 71% [||||||||||||||||||||||||||||||||||||||||||                  ] 71% [||||||||||||||||||||||||||||||||||||||||||                  ] 71% [||||||||||||||||||||||||||||||||||||||||||                  ] 71% [||||||||||||||||||||||||||||||||||||||||||                  ] 71% [||||||||||||||||||||||||||||||||||||||||||                  ] 71% [||||||||||||||||||||||||||||||||||||||||||                  ] 71% [|||||||||||||||||||||||||||||||||||||||||||                 ] 71% [|||||||||||||||||||||||||||||||||||||||||||                 ] 71% [|||||||||||||||||||||||||||||||||||||||||||                 ] 71% [|||||||||||||||||||||||||||||||||||||||||||                 ] 72% [|||||||||||||||||||||||||||||||||||||||||||                 ] 72% [|||||||||||||||||||||||||||||||||||||||||||                 ] 72% [|||||||||||||||||||||||||||||||||||||||||||                 ] 72% [|||||||||||||||||||||||||||||||||||||||||||                 ] 72% [|||||||||||||||||||||||||||||||||||||||||||                 ] 72% [|||||||||||||||||||||||||||||||||||||||||||                 ] 72% [|||||||||||||||||||||||||||||||||||||||||||                 ] 72% [|||||||||||||||||||||||||||||||||||||||||||                 ] 72% [|||||||||||||||||||||||||||||||||||||||||||                 ] 72% [|||||||||||||||||||||||||||||||||||||||||||                 ] 73% [|||||||||||||||||||||||||||||||||||||||||||                 ] 73% [|||||||||||||||||||||||||||||||||||||||||||                 ] 73% [|||||||||||||||||||||||||||||||||||||||||||                 ] 73% [||||||||||||||||||||||||||||||||||||||||||||                ] 73% [||||||||||||||||||||||||||||||||||||||||||||                ] 73% [||||||||||||||||||||||||||||||||||||||||||||                ] 73% [||||||||||||||||||||||||||||||||||||||||||||                ] 73% [||||||||||||||||||||||||||||||||||||||||||||                ] 73% [||||||||||||||||||||||||||||||||||||||||||||                ] 73% [||||||||||||||||||||||||||||||||||||||||||||                ] 74% [||||||||||||||||||||||||||||||||||||||||||||                ] 74% [||||||||||||||||||||||||||||||||||||||||||||                ] 74% [||||||||||||||||||||||||||||||||||||||||||||                ] 74% [||||||||||||||||||||||||||||||||||||||||||||                ] 74% [||||||||||||||||||||||||||||||||||||||||||||                ] 74% [||||||||||||||||||||||||||||||||||||||||||||                ] 74% [||||||||||||||||||||||||||||||||||||||||||||                ] 74% [||||||||||||||||||||||||||||||||||||||||||||                ] 74% [||||||||||||||||||||||||||||||||||||||||||||                ] 74% [||||||||||||||||||||||||||||||||||||||||||||                ] 75% [|||||||||||||||||||||||||||||||||||||||||||||               ] 75% [|||||||||||||||||||||||||||||||||||||||||||||               ] 75% [|||||||||||||||||||||||||||||||||||||||||||||               ] 75% [|||||||||||||||||||||||||||||||||||||||||||||               ] 75% [|||||||||||||||||||||||||||||||||||||||||||||               ] 75% [|||||||||||||||||||||||||||||||||||||||||||||               ] 75% [|||||||||||||||||||||||||||||||||||||||||||||               ] 75% [|||||||||||||||||||||||||||||||||||||||||||||               ] 75% [|||||||||||||||||||||||||||||||||||||||||||||               ] 75% [|||||||||||||||||||||||||||||||||||||||||||||               ] 76% [|||||||||||||||||||||||||||||||||||||||||||||               ] 76% [|||||||||||||||||||||||||||||||||||||||||||||               ] 76% [|||||||||||||||||||||||||||||||||||||||||||||               ] 76% [|||||||||||||||||||||||||||||||||||||||||||||               ] 76% [|||||||||||||||||||||||||||||||||||||||||||||               ] 76% [|||||||||||||||||||||||||||||||||||||||||||||               ] 76% [||||||||||||||||||||||||||||||||||||||||||||||              ] 76% [||||||||||||||||||||||||||||||||||||||||||||||              ] 76% [||||||||||||||||||||||||||||||||||||||||||||||              ] 76% [||||||||||||||||||||||||||||||||||||||||||||||              ] 77% [||||||||||||||||||||||||||||||||||||||||||||||              ] 77% [||||||||||||||||||||||||||||||||||||||||||||||              ] 77% [||||||||||||||||||||||||||||||||||||||||||||||              ] 77% [||||||||||||||||||||||||||||||||||||||||||||||              ] 77% [||||||||||||||||||||||||||||||||||||||||||||||              ] 77% [||||||||||||||||||||||||||||||||||||||||||||||              ] 77% [||||||||||||||||||||||||||||||||||||||||||||||              ] 77% [||||||||||||||||||||||||||||||||||||||||||||||              ] 77% [||||||||||||||||||||||||||||||||||||||||||||||              ] 77% [||||||||||||||||||||||||||||||||||||||||||||||              ] 78% [||||||||||||||||||||||||||||||||||||||||||||||              ] 78% [||||||||||||||||||||||||||||||||||||||||||||||              ] 78% [||||||||||||||||||||||||||||||||||||||||||||||              ] 78% [|||||||||||||||||||||||||||||||||||||||||||||||             ] 78% [|||||||||||||||||||||||||||||||||||||||||||||||             ] 78% [|||||||||||||||||||||||||||||||||||||||||||||||             ] 78% [|||||||||||||||||||||||||||||||||||||||||||||||             ] 78% [|||||||||||||||||||||||||||||||||||||||||||||||             ] 78% [|||||||||||||||||||||||||||||||||||||||||||||||             ] 78% [|||||||||||||||||||||||||||||||||||||||||||||||             ] 79% [|||||||||||||||||||||||||||||||||||||||||||||||             ] 79% [|||||||||||||||||||||||||||||||||||||||||||||||             ] 79% [|||||||||||||||||||||||||||||||||||||||||||||||             ] 79% [|||||||||||||||||||||||||||||||||||||||||||||||             ] 79% [|||||||||||||||||||||||||||||||||||||||||||||||             ] 79% [|||||||||||||||||||||||||||||||||||||||||||||||             ] 79% [|||||||||||||||||||||||||||||||||||||||||||||||             ] 79% [|||||||||||||||||||||||||||||||||||||||||||||||             ] 79% [|||||||||||||||||||||||||||||||||||||||||||||||             ] 79% [|||||||||||||||||||||||||||||||||||||||||||||||             ] 80% [||||||||||||||||||||||||||||||||||||||||||||||||            ] 80% [||||||||||||||||||||||||||||||||||||||||||||||||            ] 80% [||||||||||||||||||||||||||||||||||||||||||||||||            ] 80% [||||||||||||||||||||||||||||||||||||||||||||||||            ] 80% [||||||||||||||||||||||||||||||||||||||||||||||||            ] 80% [||||||||||||||||||||||||||||||||||||||||||||||||            ] 80% [||||||||||||||||||||||||||||||||||||||||||||||||            ] 80% [||||||||||||||||||||||||||||||||||||||||||||||||            ] 80% [||||||||||||||||||||||||||||||||||||||||||||||||            ] 80% [||||||||||||||||||||||||||||||||||||||||||||||||            ] 81% [||||||||||||||||||||||||||||||||||||||||||||||||            ] 81% [||||||||||||||||||||||||||||||||||||||||||||||||            ] 81% [||||||||||||||||||||||||||||||||||||||||||||||||            ] 81% [||||||||||||||||||||||||||||||||||||||||||||||||            ] 81% [||||||||||||||||||||||||||||||||||||||||||||||||            ] 81% [||||||||||||||||||||||||||||||||||||||||||||||||            ] 81% [||||||||||||||||||||||||||||||||||||||||||||||||            ] 81% [|||||||||||||||||||||||||||||||||||||||||||||||||           ] 81% [|||||||||||||||||||||||||||||||||||||||||||||||||           ] 81% [|||||||||||||||||||||||||||||||||||||||||||||||||           ] 82% [|||||||||||||||||||||||||||||||||||||||||||||||||           ] 82% [|||||||||||||||||||||||||||||||||||||||||||||||||           ] 82% [|||||||||||||||||||||||||||||||||||||||||||||||||           ] 82% [|||||||||||||||||||||||||||||||||||||||||||||||||           ] 82% [|||||||||||||||||||||||||||||||||||||||||||||||||           ] 82% [|||||||||||||||||||||||||||||||||||||||||||||||||           ] 82% [|||||||||||||||||||||||||||||||||||||||||||||||||           ] 82% [|||||||||||||||||||||||||||||||||||||||||||||||||           ] 82% [|||||||||||||||||||||||||||||||||||||||||||||||||           ] 82% [|||||||||||||||||||||||||||||||||||||||||||||||||           ] 83% [|||||||||||||||||||||||||||||||||||||||||||||||||           ] 83% [|||||||||||||||||||||||||||||||||||||||||||||||||           ] 83% [|||||||||||||||||||||||||||||||||||||||||||||||||           ] 83% [||||||||||||||||||||||||||||||||||||||||||||||||||          ] 83% [||||||||||||||||||||||||||||||||||||||||||||||||||          ] 83% [||||||||||||||||||||||||||||||||||||||||||||||||||          ] 83% [||||||||||||||||||||||||||||||||||||||||||||||||||          ] 83% [||||||||||||||||||||||||||||||||||||||||||||||||||          ] 83% [||||||||||||||||||||||||||||||||||||||||||||||||||          ] 83% [||||||||||||||||||||||||||||||||||||||||||||||||||          ] 84% [||||||||||||||||||||||||||||||||||||||||||||||||||          ] 84% [||||||||||||||||||||||||||||||||||||||||||||||||||          ] 84% [||||||||||||||||||||||||||||||||||||||||||||||||||          ] 84% [||||||||||||||||||||||||||||||||||||||||||||||||||          ] 84% [||||||||||||||||||||||||||||||||||||||||||||||||||          ] 84% [||||||||||||||||||||||||||||||||||||||||||||||||||          ] 84% [||||||||||||||||||||||||||||||||||||||||||||||||||          ] 84% [||||||||||||||||||||||||||||||||||||||||||||||||||          ] 84% [||||||||||||||||||||||||||||||||||||||||||||||||||          ] 84% [||||||||||||||||||||||||||||||||||||||||||||||||||          ] 85% [|||||||||||||||||||||||||||||||||||||||||||||||||||         ] 85% [|||||||||||||||||||||||||||||||||||||||||||||||||||         ] 85% [|||||||||||||||||||||||||||||||||||||||||||||||||||         ] 85% [|||||||||||||||||||||||||||||||||||||||||||||||||||         ] 85% [|||||||||||||||||||||||||||||||||||||||||||||||||||         ] 85% [|||||||||||||||||||||||||||||||||||||||||||||||||||         ] 85% [|||||||||||||||||||||||||||||||||||||||||||||||||||         ] 85% [|||||||||||||||||||||||||||||||||||||||||||||||||||         ] 85% [|||||||||||||||||||||||||||||||||||||||||||||||||||         ] 85% [|||||||||||||||||||||||||||||||||||||||||||||||||||         ] 86% [|||||||||||||||||||||||||||||||||||||||||||||||||||         ] 86% [|||||||||||||||||||||||||||||||||||||||||||||||||||         ] 86% [|||||||||||||||||||||||||||||||||||||||||||||||||||         ] 86% [|||||||||||||||||||||||||||||||||||||||||||||||||||         ] 86% [|||||||||||||||||||||||||||||||||||||||||||||||||||         ] 86% [|||||||||||||||||||||||||||||||||||||||||||||||||||         ] 86% [|||||||||||||||||||||||||||||||||||||||||||||||||||         ] 86% [||||||||||||||||||||||||||||||||||||||||||||||||||||        ] 86% [||||||||||||||||||||||||||||||||||||||||||||||||||||        ] 86% [||||||||||||||||||||||||||||||||||||||||||||||||||||        ] 87% [||||||||||||||||||||||||||||||||||||||||||||||||||||        ] 87% [||||||||||||||||||||||||||||||||||||||||||||||||||||        ] 87% [||||||||||||||||||||||||||||||||||||||||||||||||||||        ] 87% [||||||||||||||||||||||||||||||||||||||||||||||||||||        ] 87% [||||||||||||||||||||||||||||||||||||||||||||||||||||        ] 87% [||||||||||||||||||||||||||||||||||||||||||||||||||||        ] 87% [||||||||||||||||||||||||||||||||||||||||||||||||||||        ] 87% [||||||||||||||||||||||||||||||||||||||||||||||||||||        ] 87% [||||||||||||||||||||||||||||||||||||||||||||||||||||        ] 87% [||||||||||||||||||||||||||||||||||||||||||||||||||||        ] 88% [||||||||||||||||||||||||||||||||||||||||||||||||||||        ] 88% [||||||||||||||||||||||||||||||||||||||||||||||||||||        ] 88% [||||||||||||||||||||||||||||||||||||||||||||||||||||        ] 88% [|||||||||||||||||||||||||||||||||||||||||||||||||||||       ] 88% [|||||||||||||||||||||||||||||||||||||||||||||||||||||       ] 88% [|||||||||||||||||||||||||||||||||||||||||||||||||||||       ] 88% [|||||||||||||||||||||||||||||||||||||||||||||||||||||       ] 88% [|||||||||||||||||||||||||||||||||||||||||||||||||||||       ] 88% [|||||||||||||||||||||||||||||||||||||||||||||||||||||       ] 88% [|||||||||||||||||||||||||||||||||||||||||||||||||||||       ] 89% [|||||||||||||||||||||||||||||||||||||||||||||||||||||       ] 89% [|||||||||||||||||||||||||||||||||||||||||||||||||||||       ] 89% [|||||||||||||||||||||||||||||||||||||||||||||||||||||       ] 89% [|||||||||||||||||||||||||||||||||||||||||||||||||||||       ] 89% [|||||||||||||||||||||||||||||||||||||||||||||||||||||       ] 89% [|||||||||||||||||||||||||||||||||||||||||||||||||||||       ] 89% [|||||||||||||||||||||||||||||||||||||||||||||||||||||       ] 89% [|||||||||||||||||||||||||||||||||||||||||||||||||||||       ] 89% [|||||||||||||||||||||||||||||||||||||||||||||||||||||       ] 89% [|||||||||||||||||||||||||||||||||||||||||||||||||||||       ] 90% [||||||||||||||||||||||||||||||||||||||||||||||||||||||      ] 90% [||||||||||||||||||||||||||||||||||||||||||||||||||||||      ] 90% [||||||||||||||||||||||||||||||||||||||||||||||||||||||      ] 90% [||||||||||||||||||||||||||||||||||||||||||||||||||||||      ] 90% [||||||||||||||||||||||||||||||||||||||||||||||||||||||      ] 90% [||||||||||||||||||||||||||||||||||||||||||||||||||||||      ] 90% [||||||||||||||||||||||||||||||||||||||||||||||||||||||      ] 90% [||||||||||||||||||||||||||||||||||||||||||||||||||||||      ] 90% [||||||||||||||||||||||||||||||||||||||||||||||||||||||      ] 90% [||||||||||||||||||||||||||||||||||||||||||||||||||||||      ] 91% [||||||||||||||||||||||||||||||||||||||||||||||||||||||      ] 91% [||||||||||||||||||||||||||||||||||||||||||||||||||||||      ] 91% [||||||||||||||||||||||||||||||||||||||||||||||||||||||      ] 91% [||||||||||||||||||||||||||||||||||||||||||||||||||||||      ] 91% [||||||||||||||||||||||||||||||||||||||||||||||||||||||      ] 91% [||||||||||||||||||||||||||||||||||||||||||||||||||||||      ] 91% [||||||||||||||||||||||||||||||||||||||||||||||||||||||      ] 91% [|||||||||||||||||||||||||||||||||||||||||||||||||||||||     ] 91% [|||||||||||||||||||||||||||||||||||||||||||||||||||||||     ] 91% [|||||||||||||||||||||||||||||||||||||||||||||||||||||||     ] 92% [|||||||||||||||||||||||||||||||||||||||||||||||||||||||     ] 92% [|||||||||||||||||||||||||||||||||||||||||||||||||||||||     ] 92% [|||||||||||||||||||||||||||||||||||||||||||||||||||||||     ] 92% [|||||||||||||||||||||||||||||||||||||||||||||||||||||||     ] 92% [|||||||||||||||||||||||||||||||||||||||||||||||||||||||     ] 92% [|||||||||||||||||||||||||||||||||||||||||||||||||||||||     ] 92% [|||||||||||||||||||||||||||||||||||||||||||||||||||||||     ] 92% [|||||||||||||||||||||||||||||||||||||||||||||||||||||||     ] 92% [|||||||||||||||||||||||||||||||||||||||||||||||||||||||     ] 92% [|||||||||||||||||||||||||||||||||||||||||||||||||||||||     ] 93% [|||||||||||||||||||||||||||||||||||||||||||||||||||||||     ] 93% [|||||||||||||||||||||||||||||||||||||||||||||||||||||||     ] 93% [|||||||||||||||||||||||||||||||||||||||||||||||||||||||     ] 93% [|||||||||||||||||||||||||||||||||||||||||||||||||||||||     ] 93% [||||||||||||||||||||||||||||||||||||||||||||||||||||||||    ] 93% [||||||||||||||||||||||||||||||||||||||||||||||||||||||||    ] 93% [||||||||||||||||||||||||||||||||||||||||||||||||||||||||    ] 93% [||||||||||||||||||||||||||||||||||||||||||||||||||||||||    ] 93% [||||||||||||||||||||||||||||||||||||||||||||||||||||||||    ] 93% [||||||||||||||||||||||||||||||||||||||||||||||||||||||||    ] 94% [||||||||||||||||||||||||||||||||||||||||||||||||||||||||    ] 94% [||||||||||||||||||||||||||||||||||||||||||||||||||||||||    ] 94% [||||||||||||||||||||||||||||||||||||||||||||||||||||||||    ] 94% [||||||||||||||||||||||||||||||||||||||||||||||||||||||||    ] 94% [||||||||||||||||||||||||||||||||||||||||||||||||||||||||    ] 94% [||||||||||||||||||||||||||||||||||||||||||||||||||||||||    ] 94% [||||||||||||||||||||||||||||||||||||||||||||||||||||||||    ] 94% [||||||||||||||||||||||||||||||||||||||||||||||||||||||||    ] 94% [||||||||||||||||||||||||||||||||||||||||||||||||||||||||    ] 94% [||||||||||||||||||||||||||||||||||||||||||||||||||||||||    ] 95% [|||||||||||||||||||||||||||||||||||||||||||||||||||||||||   ] 95% [|||||||||||||||||||||||||||||||||||||||||||||||||||||||||   ] 95% [|||||||||||||||||||||||||||||||||||||||||||||||||||||||||   ] 95% [|||||||||||||||||||||||||||||||||||||||||||||||||||||||||   ] 95% [|||||||||||||||||||||||||||||||||||||||||||||||||||||||||   ] 95% [|||||||||||||||||||||||||||||||||||||||||||||||||||||||||   ] 95% [|||||||||||||||||||||||||||||||||||||||||||||||||||||||||   ] 95% [|||||||||||||||||||||||||||||||||||||||||||||||||||||||||   ] 95% [|||||||||||||||||||||||||||||||||||||||||||||||||||||||||   ] 95% [|||||||||||||||||||||||||||||||||||||||||||||||||||||||||   ] 96% [|||||||||||||||||||||||||||||||||||||||||||||||||||||||||   ] 96% [|||||||||||||||||||||||||||||||||||||||||||||||||||||||||   ] 96% [|||||||||||||||||||||||||||||||||||||||||||||||||||||||||   ] 96% [|||||||||||||||||||||||||||||||||||||||||||||||||||||||||   ] 96% [|||||||||||||||||||||||||||||||||||||||||||||||||||||||||   ] 96% [|||||||||||||||||||||||||||||||||||||||||||||||||||||||||   ] 96% [|||||||||||||||||||||||||||||||||||||||||||||||||||||||||   ] 96% [||||||||||||||||||||||||||||||||||||||||||||||||||||||||||  ] 96% [||||||||||||||||||||||||||||||||||||||||||||||||||||||||||  ] 96% [||||||||||||||||||||||||||||||||||||||||||||||||||||||||||  ] 97% [||||||||||||||||||||||||||||||||||||||||||||||||||||||||||  ] 97% [||||||||||||||||||||||||||||||||||||||||||||||||||||||||||  ] 97% [||||||||||||||||||||||||||||||||||||||||||||||||||||||||||  ] 97% [||||||||||||||||||||||||||||||||||||||||||||||||||||||||||  ] 97% [||||||||||||||||||||||||||||||||||||||||||||||||||||||||||  ] 97% [||||||||||||||||||||||||||||||||||||||||||||||||||||||||||  ] 97% [||||||||||||||||||||||||||||||||||||||||||||||||||||||||||  ] 97% [||||||||||||||||||||||||||||||||||||||||||||||||||||||||||  ] 97% [||||||||||||||||||||||||||||||||||||||||||||||||||||||||||  ] 97% [||||||||||||||||||||||||||||||||||||||||||||||||||||||||||  ] 98% [||||||||||||||||||||||||||||||||||||||||||||||||||||||||||  ] 98% [||||||||||||||||||||||||||||||||||||||||||||||||||||||||||  ] 98% [||||||||||||||||||||||||||||||||||||||||||||||||||||||||||  ] 98% [||||||||||||||||||||||||||||||||||||||||||||||||||||||||||  ] 98% [||||||||||||||||||||||||||||||||||||||||||||||||||||||||||| ] 98% [||||||||||||||||||||||||||||||||||||||||||||||||||||||||||| ] 98% [||||||||||||||||||||||||||||||||||||||||||||||||||||||||||| ] 98% [||||||||||||||||||||||||||||||||||||||||||||||||||||||||||| ] 98% [||||||||||||||||||||||||||||||||||||||||||||||||||||||||||| ] 98% [||||||||||||||||||||||||||||||||||||||||||||||||||||||||||| ] 99% [||||||||||||||||||||||||||||||||||||||||||||||||||||||||||| ] 99% [||||||||||||||||||||||||||||||||||||||||||||||||||||||||||| ] 99% [||||||||||||||||||||||||||||||||||||||||||||||||||||||||||| ] 99% [||||||||||||||||||||||||||||||||||||||||||||||||||||||||||| ] 99% [||||||||||||||||||||||||||||||||||||||||||||||||||||||||||| ] 99% [||||||||||||||||||||||||||||||||||||||||||||||||||||||||||| ] 99% [||||||||||||||||||||||||||||||||||||||||||||||||||||||||||| ] 99% [||||||||||||||||||||||||||||||||||||||||||||||||||||||||||| ] 99% [||||||||||||||||||||||||||||||||||||||||||||||||||||||||||| ] 99% [||||||||||||||||||||||||||||||||||||||||||||||||||||||||||| ]100% [||||||||||||||||||||||||||||||||||||||||||||||||||||||||||||]
######### Reading the Data for p #########
[...]
 Error is 0.00172963
 Error is 0.00173004
 Error is 0.00173044
 Error is 0.00173086
 Error is 0.00173126
 Error is 0.00173166
 Error is 0.204381
 Error is 0.0612093
 Error is 0.112552
 Error is 0.126899
 Error is 0.118946
 Error is 0.116139
 Error is 0.130672
 Error is 0.154182
 Error is 0.175199
 Error is 0.187771
 Error is 0.190119
 Error is 0.182726
 Error is 0.167304
 Error is 0.146308
 Error is 0.122728
 Error is 0.0999797
 Error is 0.0816248
 Error is 0.0703447
 Error is 0.0660526
 Error is 0.0657452
 Error is 0.0663075
 Error is 0.0665371
 Error is 0.0670777
 Error is 0.0694709
 Error is 0.0749369
 Error is 0.083473
 Error is 0.0938807
 Error is 0.104384
 Error is 0.113176
 Error is 0.118744
 Error is 0.120087
 Error is 0.116861
 Error is 0.109443
 Error is 0.0988923
 Error is 0.0867832
 Error is 0.0749431
 Error is 0.065047
 Error is 0.0580952
 Error is 0.0540293
 Error is 0.0519424
 Error is 0.0508144
 Error is 0.0500859
 Error is 0.0497724
 Error is 0.0502706
 Error is 0.0520222
 Error is 0.0551828
 Error is 0.0594721
 Error is 0.064301
 Error is 0.0690192
 Error is 0.073113
 Error is 0.0762933
 Error is 0.0784952
 Error is 0.0798253
 Error is 0.0804879
 Error is 0.0807117
 Error is 0.0806908
 Error is 0.0805471
 Error is 0.0803114
 Error is 0.0799254
 Error is 0.0792596
 Error is 0.0781463
 Error is 0.0764223
 Error is 0.0739718
 Error is 0.0707621
 Error is 0.0668633
 Error is 0.0624486
 Error is 0.0577739
 Error is 0.0531408
 Error is 0.0488465
 Error is 0.0451331
 Error is 0.0421455
 Error is 0.0399153
 Error is 0.0383733
 Error is 0.0373925
 Error is 0.0368293
 Error is 0.0365577
 Error is 0.0364806
 Error is 0.0365331
 Error is 0.0366747
 Error is 0.0368872
 Error is 0.0371712
 Error is 0.0375409
 Error is 0.0380226
 Error is 0.0386476
 Error is 0.0394459
 Error is 0.0404391
 Error is 0.0416347
 Error is 0.0430214
 Error is 0.0445669
 Error is 0.0462219
 Error is 0.0479256
 Error is 0.0496136
 Error is 0.0512268
 Error is 0.0527201
 Error is 0.0540657
 Error is 0.0552556
 Error is 0.0562992
 Error is 0.057219
 Error is 0.0580441
 Error is 0.0588045
 Error is 0.059525
 Error is 0.0602212
 Error is 0.0608979
 Error is 0.0615484
 Error is 0.0621568
 Error is 0.0627017
 Error is 0.0631591
 Error is 0.0635075
 Error is 0.0637305
 Error is 0.0638191
 Error is 0.0637721
 Error is 0.0635953
 Error is 0.0632996
 Error is 0.0628984
 Error is 0.0624056
 Error is 0.0618328
 Error is 0.061189
 Error is 0.0604798
 Error is 0.0597085
 Error is 0.0588766
 Error is 0.0579863
 Error is 0.0570411
 Error is 0.0560475
 Error is 0.0550152
 Error is 0.0539567
 Error is 0.0528869
 Error is 0.0518211
 Error is 0.050774
 Error is 0.0497583
 Error is 0.0487838
 Error is 0.0478563
 Error is 0.0469781
 Error is 0.0461484
 Error is 0.0453644
 Error is 0.044622
 Error is 0.0439167
 Error is 0.0432444
 Error is 0.0426026
 Error is 0.0419898
 Error is 0.041406
 Error is 0.0408517
 Error is 0.0403272
 Error is 0.0398338
 Error is 0.0393712
 Error is 0.0389386
 Error is 0.0385347
 Error is 0.0381575
 Error is 0.0378044
 Error is 0.0374732
 Error is 0.0371617
 Error is 0.0368687
 Error is 0.0365931
 Error is 0.0363349
 Error is 0.0360943
 Error is 0.0358715
 Error is 0.0356667
 Error is 0.0354802
 Error is 0.0353116
 Error is 0.0351596
 Error is 0.0350232
 Error is 0.0349007
 Error is 0.0347899
 Error is 0.0346896
 Error is 0.0345977
 Error is 0.0345136
 Error is 0.0344364
 Error is 0.0343655
 Error is 0.0343012
 Error is 0.0342436
 Error is 0.0341927
 Error is 0.0341487
 Error is 0.0341119
 Error is 0.0340817
 Error is 0.0340582
 Error is 0.0340408
 Error is 0.034029
 Error is 0.0340227
 Error is 0.0340214
 Error is 0.034025
 Error is 0.0340331
 Error is 0.0340461
 Error is 0.0340638
 Error is 0.0340864
 Error is 0.0341135
 Error is 0.0341454
 Error is 0.0341817
 Error is 0.0342221
 Error is 0.034266
 Error is 0.0343131
 Error is 0.034363
 Error is 0.0344154
 Error is 0.0344697
 Error is 0.0345261
 Error is 0.0345844
 Error is 0.0346445
 Error is 0.0347066
 Error is 0.0347704
 Error is 0.0348361
 Error is 0.0349038
 Error is 0.0349732
 Error is 0.0350444
 Error is 0.0351172
 Error is 0.0351914
 Error is 0.0352667
 Error is 0.0353435
 Error is 0.0354212
 Error is 0.0355002
 Error is 0.0355803
 Error is 0.0356611
 Error is 0.0357428
 Error is 0.0358255
 Error is 0.035909
 Error is 0.0359933
 Error is 0.036078
 Error is 0.0361632
 Error is 0.0362487
 Error is 0.0363346
 Error is 0.0364204
 Error is 0.0365043
 Error is 0.0365892
 Error is 0.0366741
 Error is 0.0367588
 Error is 0.0368431
 Error is 0.036927
 Error is 0.0370106
 Error is 0.0370937
 Error is 0.037176
 Error is 0.0372579
 Error is 0.0373387
 Error is 0.0374187
 Error is 0.0374976
 Error is 0.0375754
 Error is 0.0376518
 Error is 0.0377268
 Error is 0.0378005
 Error is 0.0378726
 Error is 0.0379431
 Error is 0.0380117
 Error is 0.0380788
 Error is 0.0381438
 Error is 0.0382071
 Error is 0.0382682
 Error is 0.0383273
 Error is 0.0383842
 Error is 0.038439
 Error is 0.0384917
 Error is 0.0385419
 Error is 0.0385902
 Error is 0.0386362
 Error is 0.0386799
 Error is 0.0387216
 Error is 0.0387612
 Error is 0.0387987
 Error is 0.0388342
 Error is 0.0388677
 Error is 0.0388992
 Error is 0.0389286
 Error is 0.0389564
 Error is 0.0389823
 Error is 0.0390064
 Error is 0.0390289
 Error is 0.0390499
 Error is 0.0390693
 Error is 0.0390874
 Error is 0.0391042
 Error is 0.0391197
 Error is 0.0391339
 Error is 0.0391471
 Error is 0.0391592
 Error is 0.0391704
 Error is 0.0391809
 Error is 0.0391904
 Error is 0.0391992
 Error is 0.0392074
 Error is 0.039215
 Error is 0.0392219
 Error is 0.0392286
 Error is 0.0392348
 Error is 0.0392405
 Error is 0.039246
 Error is 0.0392511
 Error is 0.0392559
 Error is 0.0392607
 Error is 0.039265
 Error is 0.0392692
 Error is 0.0392731
 Error is 0.0392769
 Error is 0.0392805
 Error is 0.0392838
 Error is 0.039287
 Error is 0.0392901
 Error is 0.0392928
 Error is 0.0392952
 Error is 0.0392976
 Error is 0.0392997
 Error is 0.0393018
 Error is 0.0393036
 Error is 0.0393051
 Error is 0.0393062
 Error is 0.0393079
 Error is 0.0393085
 Error is 0.0393088
 Error is 0.0393087
 Error is 0.0393083
 Error is 0.0393076
 Error is 0.0393063
 Error is 0.0393049
 Error is 0.039303
 Error is 0.0393006
 Error is 0.039298
 Error is 0.039295
 Error is 0.0392914
 Error is 0.0392875
 Error is 0.0392832
 Error is 0.0392784
 Error is 0.0392734
 Error is 0.0392679
 Error is 0.039262
 Error is 0.0392559
 Error is 0.0392493
 Error is 0.0392424
 Error is 0.0392352
 Error is 0.0392277
 Error is 0.0392199
 Error is 0.0392119
 Error is 0.0392036
 Error is 0.0391951
 Error is 0.0391865
 Error is 0.0391777
 Error is 0.0391687
 Error is 0.0391596
 Error is 0.0391505
 Error is 0.0391412
 Error is 0.0391319
 Error is 0.0391226
 Error is 0.039113
 Error is 0.0391037
 Error is 0.0390943
 Error is 0.0390849
 Error is 0.0390757
 Error is 0.0390665
 Error is 0.0390573
 Error is 0.0390483
 Error is 0.0390392
 Error is 0.0390305
 Error is 0.0390217
 Error is 0.0390131
 Error is 0.0390046
 Error is 0.0389963
 Error is 0.038988
 Error is 0.0389799
 Error is 0.0389721
 Error is 0.0389642
 Error is 0.0389565
 Error is 0.0389489
 Error is 0.0389415
 Error is 0.0389341
 Error is 0.0389267
 Error is 0.0389197
 Error is 0.0389125
 Error is 0.0389056
 Error is 0.0388986
 Error is 0.0388918
 Error is 0.038885
 Error is 0.0388782
 Error is 0.0388714
 Error is 0.0388647
 Error is 0.038858
 Error is 0.0388513
 Error is 0.0388445
 Error is 0.0388378
 Error is 0.0388311
 Error is 0.0388243
 Error is 0.0388175
 Error is 0.0388107
 Error is 0.0388038
 Error is 0.0387969
 Error is 0.0387899
 Error is 0.0387827
 Error is 0.0387757
 Error is 0.0387685
 Error is 0.0387613
 Error is 0.0387541
 Error is 0.0387468
 Error is 0.0387393
 Error is 0.0387319
 Error is 0.0387245
 Error is 0.038717
 Error is 0.0387095
 Error is 0.0387019
 Error is 0.0386943
 Error is 0.0386867
 Error is 0.0386811
 Error is 0.0386754
 Error is 0.0386698
 Error is 0.0386642
 Error is 0.0386584
 Error is 0.0386529
 Error is 0.0386474
 Error is 0.0386416
 Error is 0.0386357
 Error is 0.0386304
 Error is 0.0386245
 Error is 0.038619
 Error is 0.0386131
 Error is 0.0386077
 Error is 0.0386019
 Error is 0.0385965
 Error is 0.0385909
 Error is 0.0385853
 Error is 0.0385801
 Error is 0.0385745
 Error is 0.0385692
 Error is 0.0385639
 Error is 0.0385586
 Error is 0.0385532
 Error is 0.038548
 Error is 0.0385429
 Error is 0.0385379
 Error is 0.0385327
 Error is 0.0385276
 Error is 0.0385227
 Error is 0.0385177
 Error is 0.0385129
 Error is 0.0385081
 Error is 0.0385031
 Error is 0.0384985
 Error is 0.0384937
 Error is 0.0384891
 Error is 0.0384845
 Error is 0.0384799
 Error is 0.0384754
 Error is 0.0384709
 Error is 0.0384664
 Error is 0.0384619
 Error is 0.0384573
 Error is 0.0384529
 Error is 0.0384485
 Error is 0.0384443
 Error is 0.03844
 Error is 0.0384356
 Error is 0.0384312
 Error is 0.038427
 Error is 0.0384226
 Error is 0.0384185
 Error is 0.0384141
 Error is 0.03841
 Error is 0.0384055
 Error is 0.0384013
 Error is 0.0383971
 Error is 0.0383928
 Error is 0.0383887
 Error is 0.0383845
 Error is 0.0383802
 Error is 0.038376
 Error is 0.0383716
 Error is 0.0383675
 Error is 0.0383633
 Error is 0.0383588
 Error is 0.0383547
 Error is 0.0383504
 Error is 0.0383461
 Error is 0.0383418
 Error is 0.0383375
 Error is 0.0383335
 Error is 0.0383292
 Error is 0.038325
 Error is 0.038321
 Error is 0.0383166
 Error is 0.0383125
 Error is 0.0383081
 Error is 0.0383042
 Error is 0.0383
 Error is 0.0382956
 Error is 0.0382918
 Error is 0.0382875
 Error is 0.0382835
 Error is 0.0382794
 Error is 0.0382754
 Error is 0.0382713
 Error is 0.0382673
 Error is 0.0382635
 Error is 0.0382596
 Error is 0.0382558
 Error is 0.0382517
 Error is 0.0382479
 Error is 0.0382445
 Error is 0.0382406
 Error is 0.0382369
 Error is 0.0382332
 Error is 0.0382295
 Error is 0.0382261
 Error is 0.0382223
 Error is 0.0382188
 Error is 0.0382152
 Error is 0.0382119
 Error is 0.0382084
 Error is 0.0382051
 Error is 0.0382016
 Error is 0.0381983
 Error is 0.0381951
 Error is 0.0381918
 Error is 0.0381887
 Error is 0.0381853
 Error is 0.0381823
 Error is 0.0381792
 Error is 0.0381762
 Error is 0.038173
 Error is 0.0381701
 Error is 0.038167
 Error is 0.038164
 Error is 0.0381612
 Error is 0.0381583
 Error is 0.0381553
 Error is 0.0381524
 Error is 0.0381496
 Error is 0.0381469
 Error is 0.0381439
 Error is 0.0381412
 Error is 0.0381386
 Error is 0.0381357
 Error is 0.0381332
 Error is 0.0381304
 Error is 0.0381275
 Error is 0.038125
 Error is 0.0381223
 Error is 0.0381196
 Error is 0.0381171
 Error is 0.0381144
 Error is 0.0381117
 Error is 0.0381091
 Error is 0.0381064
 Error is 0.0381037
 Error is 0.0381012
 Error is 0.0380989
 Error is 0.0380962
 Error is 0.0380936
 Error is 0.038091
 Error is 0.0380884
 Error is 0.0380858
 Error is 0.0380836
 Error is 0.0380811
 Error is 0.0380784
 Error is 0.0380759
 Error is 0.0380735
 Error is 0.038071
 Error is 0.0380684
 Error is 0.0380663
 Error is 0.0380637
 Error is 0.0380614
 Error is 0.0380591
 Error is 0.0380566
 Error is 0.0380542
 Error is 0.0380519
 Error is 0.0380496
 Error is 0.0380473
 Error is 0.0380452
 Error is 0.0380428
 Error is 0.0380406
 Error is 0.0380382
 Error is 0.0380362
 Error is 0.038034
 Error is 0.0380317
 Error is 0.0380296
 Error is 0.0380275
 Error is 0.0380253
 Error is 0.0380233
 Error is 0.0380211
 Error is 0.0380191
 Error is 0.0380173
 Error is 0.0380153
 Error is 0.0380132
 Error is 0.0380112
 Error is 0.0380092
 Error is 0.0380072
 Error is 0.0380053
 Error is 0.0380035
 Error is 0.0380017
 Error is 0.038
 Error is 0.0379982
 Error is 0.0379962
 Error is 0.0379945
 Error is 0.0379927
 Error is 0.0379909
 Error is 0.0379891
 Error is 0.0379875
 Error is 0.0379858
 Error is 0.0379842
 Error is 0.0379825
 Error is 0.0379808
 Error is 0.0379792
 Error is 0.0379775
 Error is 0.0379759
 Error is 0.0379743
 Error is 0.0379726
 Error is 0.037971
 Error is 0.0379694
 Error is 0.0379682
 Error is 0.0379666
 Error is 0.0379651
 Error is 0.0379633
 Error is 0.0379619
 Error is 0.0379604
 Error is 0.0379589
 Error is 0.0379573
 Error is 0.037956
 Error is 0.0379544
 Error is 0.0379531
 Error is 0.0379515
 Error is 0.0379501
 Error is 0.0379487
 Error is 0.037947
 Error is 0.0379458
 Error is 0.0379443
 Error is 0.0379428
 Error is 0.0379415
 Error is 0.03794
 Error is 0.0379388
 Error is 0.0379373
 Error is 0.0379361
 Error is 0.0379346
 Error is 0.0379332
 Error is 0.037932
 Error is 0.0379305
 Error is 0.0379291
 Error is 0.037928
 Error is 0.0379266
 Error is 0.0379253
 Error is 0.0379239
 Error is 0.0379225
 Error is 0.0379214
 Error is 0.0379201
 Error is 0.037919
 Error is 0.0379176
 Error is 0.0379165
 Error is 0.037915
 Error is 0.037914
 Error is 0.0379127
 Error is 0.0379115
 Error is 0.0379103
 Error is 0.0379091
 Error is 0.0379079
 Error is 0.0379066
 Error is 0.0379054
 Error is 0.0379046
 Error is 0.0379034
 Error is 0.0379021
 Error is 0.0379009
 Error is 0.0379002
 Error is 0.037899
 Error is 0.037898
 Error is 0.0378968
 Error is 0.0378959
 Error is 0.0378948
 Error is 0.0378939
 Error is 0.0378926
 Error is 0.0378916
 Error is 0.0378905
 Error is 0.0378901
 Error is 0.0378887
 Error is 0.0378875
 Error is 0.037887
 Error is 0.0378858
 Error is 0.0378847
 Error is 0.0378841
 Error is 0.037883
 Error is 0.037882
 Error is 0.0378811
 Error is 0.0378802
 Error is 0.0378793
 Error is 0.0378785
 Error is 0.0378776
 Error is 0.0378766
 Error is 0.037876
 Error is 0.0378751
 Error is 0.0378742
 Error is 0.0378733
 Error is 0.0378725
 Error is 0.0378715
 Error is 0.0378706
 Error is 0.03787
 Error is 0.0378692
 Error is 0.0378678
 Error is 0.0378674
 Error is 0.0378666
 Error is 0.0378657
 Error is 0.037865
 Error is 0.037864
 Error is 0.0378632
 Error is 0.0378626
 Error is 0.0378617
 Error is 0.0378607
 Error is 0.0378601
 Error is 0.0378594
 Error is 0.0378586
 Error is 0.0378578
 Error is 0.0378571
 Error is 0.0378563
 Error is 0.0378555
 Error is 0.0378548
 Error is 0.0378546
 Error is 0.0378537
 Error is 0.037852
 Error is 0.0378518
 Error is 0.0378514
 Error is 0.0378502
 Error is 0.0378495
 Error is 0.0378489
 Error is 0.0378482
 Error is 0.0378476
 Error is 0.0378471
 Error is 0.0378463
 Error is 0.0378452
 Error is 0.037845
 Error is 0.0378441
 Error is 0.0378439
 Error is 0.037843
 Error is 0.0378426
 Error is 0.0378414
 Error is 0.0378406
 Error is 0.0378406
 Error is 0.0378399
 Error is 0.037839
 Error is 0.0378382
 Error is 0.0378376
 Error is 0.037837
 Error is 0.0378362
 Error is 0.0378353
 Error is 0.0378354
 Error is 0.0378345
 Error is 0.037834
 Error is 0.0378334
 Error is 0.0378328
 Error is 0.0378322
 Error is 0.0378315
 Error is 0.0378312
 Error is 0.0378306
 Error is 0.0378302
 Error is 0.0378292
 Error is 0.0378289
 Error is 0.0378282
 Error is 0.0378279
 Error is 0.0378274
 Error is 0.037828
 Error is 0.0378263
 Error is 0.0378259
 Error is 0.037825
 Error is 0.0378245
 Error is 0.0378242
 Error is 0.0378236
 Error is 0.0378232
 Error is 0.0378227
 Error is 0.0378222
 Error is 0.0378216
 Error is 0.0378212
 Error is 0.0378204
 Error is 0.0378202
 Error is 0.0378196
 Error is 0.0378193
 Error is 0.0378188
 Error is 0.0378184
 Error is 0.0378177
 Error is 0.0378174
 Error is 0.0378174
 Error is 0.0378165
 Error is 0.037816
 Error is 0.0378157
 Error is 0.0378152
 Error is 0.0378146
 Error is 0.0378143
 Error is 0.0378137
 Error is 0.0378133
 Error is 0.0378129
 Error is 0.0378124
 Error is 0.0378119
 Error is 0.0378117
 Error is 0.0378111
 Error is 0.0378105
 Error is 0.0378102
 Error is 0.0378101
 Error is 0.0378091
 Error is 0.0378091
 Error is 0.0378081
 Error is 0.0378083
 Error is 0.0378081
 Error is 0.0378072
 Error is 0.0378067
 Error is 0.0378066
 Error is 0.0378057
 Error is 0.0378056
 Error is 0.0378054
 Error is 0.037805
 Error is 0.0378046
 Error is 0.0378043
 Error is 0.0378039
 Error is 0.0378035
 Error is 0.0378029
 Error is 0.0378028
 Error is 0.0378024
 Error is 0.037802
 Error is 0.0378016
 Error is 0.0378011
 Error is 0.0378008
 Error is 0.0378006
 Error is 0.0378003
 Error is 0.0377997
 Error is 0.0377994
 Error is 0.037799
 Error is 0.037799
 Error is 0.0377986
 Error is 0.0377978
 Error is 0.0377978
 Error is 0.0377975
 Error is 0.0377971
 Error is 0.0377969
 Error is 0.0377964
 Error is 0.0377972
 Error is 0.0377957
 Error is 0.0377956
 Error is 0.0377955
 Error is 0.0377952
 Error is 0.0377947
 Error is 0.0377942
 Error is 0.037794
 Error is 0.0377935
 Error is 0.0377933
 Error is 0.0377933
 Error is 0.0377931
 Error is 0.0377924
 Error is 0.0377921
 Error is 0.0377919
 Error is 0.0377917
 Error is 0.0377909
 Error is 0.0377911
 Error is 0.0377907
 Error is 0.037791
 Error is 0.03779
 Error is 0.0377903
 Error is 0.0377894
 Error is 0.0377896
 Error is 0.0377892
 Error is 0.0377892
 Error is 0.0377887
 Error is 0.0377881
 Error is 0.0377879
 Error is 0.0377876
 Error is 0.0377878
 Error is 0.0377872
 Error is 0.0377875
 Error is 0.037787
 Error is 0.0377865
 Error is 0.0377863
 Error is 0.0377855
 Error is 0.0377855
 Error is 0.0377851
 Error is 0.037785
 Error is 0.0377852
 Error is 0.0377847
 Error is 0.0377843
 Error is 0.0377843
 Error is 0.0377843
 Error is 0.0377837
 Error is 0.0377834
 Error is 0.0377829
 Error is 0.0377827
 Error is 0.0377828
 Error is 0.0377825
 Error is 0.0377821
 Error is 0.0377822
 Error is 0.0377822
 Error is 0.0377825
 Error is 0.0377813
 Error is 0.0377808
 Error is 0.0377808
 Error is 0.0377815
 Error is 0.0377807
 Error is 0.0377805
 Error is 0.0377798
 Error is 0.0377798
 Error is 0.0377796
 Error is 0.0377792
 Error is 0.0377792
 Error is 0.0377788
 Error is 0.0377788
 Error is 0.0377784
 Error is 0.0377785
 Error is 0.0377776
 Error is 0.0377778
 Error is 0.0377779
 Error is 0.0377775
 Error is 0.0377772
 Error is 0.0377777
 Error is 0.0377768
 Error is 0.0377765
 Error is 0.0377765
 Error is 0.0377762
 Error is 0.0377762
 Error is 0.037776
 Error is 0.0377761
 Error is 0.0377755
 Error is 0.0377754
 Error is 0.037775
 Error is 0.0377752
 Error is 0.037775
 Error is 0.0377748
 Error is 0.0377746
 Error is 0.0377743
 Error is 0.0377741
 Error is 0.037774
 Error is 0.0377737
 Error is 0.0377735
 Error is 0.0377736
 Error is 0.0377734
 Error is 0.037773
 Error is 0.0377727
 Error is 0.0377726
 Error is 0.0377726
 Error is 0.037772
 Error is 0.0377719
 Error is 0.0377719
 Error is 0.0377716
 Error is 0.0377721
 Error is 0.0377713
 Error is 0.0377712
 Error is 0.0377715
 Error is 0.0377706
 Error is 0.0377703
 Error is 0.0377706
 Error is 0.0377721
 Error is 0.0377707
 Error is 0.0377702
 Error is 0.0377703
 Error is 0.0377699
 Error is 0.0377699
 Error is 0.0377695
 Error is 0.0377688
 Error is 0.0377702
 Error is 0.0377694
 Error is 0.037769
 Error is 0.0377692
 Error is 0.0377688
 Error is 0.0377683
 Error is 0.0377684
 Error is 0.0377686
 Error is 0.0377684
 Error is 0.0377684
 Error is 0.0377677
 Error is 0.0377695
 Error is 0.0377686
 Error is 0.0377673
 Error is 0.0377674
 Error is 0.0377676
 Error is 0.0377671
 Error is 0.0377674
 Error is 0.0377669
 Error is 0.037767
 Error is 0.0377666
 Error is 0.0377666
 Error is 0.0377659
 Error is 0.0377668
 Error is 0.0377658
 Error is 0.037766
 Error is 0.0377659
 Error is 0.0377659
 Error is 0.0377653
 Error is 0.0377655
 Error is 0.0377655
 Error is 0.0377652
 Error is 0.037765
 Error is 0.0377649
 Error is 0.037765
 Error is 0.0377644
 Error is 0.0377646
 Error is 0.0377641
 Error is 0.0377646
 Error is 0.0377643
 Error is 0.037764
 Error is 0.037764
 Error is 0.0377636
 Error is 0.0377639
 Error is 0.0377637
 Error is 0.0377636
 Error is 0.0377634
 Error is 0.0377629
 Error is 0.0377632
 Error is 0.0377631
 Error is 0.0377629
 Error is 0.0377639
 Error is 0.0377627
 Error is 0.0377621
 Error is 0.0377628
 Error is 0.0377625
 Error is 0.0377611
 Error is 0.0377623
 Error is 0.037762
 Error is 0.037762
 Error is 0.0377621
 Error is 0.037762
 Error is 0.037763
 Error is 0.0377619
