/*---------------------------------------------------------------------------*\
  =========                 |
  \\      /  F ield         | OpenFOAM: The Open Source CFD Toolbox
   \\    /   O peration     | Website:  https://openfoam.org
    \\  /    A nd           | Version:  6
     \\/     M anipulation  |
\*---------------------------------------------------------------------------*/
Build  : 6
Exec   : LidDrivenCavity
Date   : Aug 07 2019
Time   : 13:50:09
Host   : "cfdclu17.ugent.be"
PID    : 44103
I/O    : uncollated
Case   : /cfdfile2/data/fm/sabrina/ITHACA-FV/tutorials/LidDrivenCavity
nProcs : 1
sigFpe : Enabling floating point exception trapping (FOAM_SIGFPE).
fileModificationChecking : Monitoring run-time modified files using timeStampMaster (fileModificationSkew 10)
allowSystemOperations : Allowing user-supplied system call operations

// * * * * * * * * * * * * * * * * * * * * * * * * * * * * * * * * * * * * * //
Reading field p

Create time

Reading field p

Create mesh for time = 0


PIMPLE: No convergence criteria found


PIMPLE: Operating solver in PISO mode

Reading field p

Reading field U

Reading/calculating face flux field phi

Selecting incompressible transport model Newtonian
Selecting turbulence model type laminar
Selecting laminar stress model Stokes
No MRF models present

Reading field p

Offline data already exist, reading existing data
POD don't exist, performing a POD decomposition
Supremizers don't exist, performing a POD decomposition
######### Reading the Data for U #########
  0% [                                                            ]  0% [                                                            ]  0% [                                                            ]  0% [                                                            ]  0% [                                                            ]  0% [                                                            ]  0% [                                                            ]  0% [                                                            ]  1% [                                                            ]  1% [                                                            ]  1% [                                                            ]  1% [                                                            ]  1% [                                                            ]  1% [                                                            ]  1% [|                                                           ]  1% [|                                                           ]  1% [|                                                           ]  1% [|                                                           ]  2% [|                                                           ]  2% [|                                                           ]  2% [|                                                           ]  2% [|                                                           ]  2% [|                                                           ]  2% [|                                                           ]  2% [|                                                           ]  2% [|                                                           ]  2% [|                                                           ]  2% [|                                                           ]  3% [|                                                           ]  3% [|                                                           ]  3% [|                                                           ]  3% [||                                                          ]  3% [||                                                          ]  3% [||                                                          ]  3% [||                                                          ]  3% [||                                                          ]  3% [||                                                          ]  3% [||                                                          ]  4% [||                                                          ]  4% [||                                                          ]  4% [||                                                          ]  4% [||                                                          ]  4% [||                                                          ]  4% [||                                                          ]  4% [||                                                          ]  4% [||                                                          ]  4% [||                                                          ]  4% [||                                                          ]  5% [|||                                                         ]  5% [|||                                                         ]  5% [|||                                                         ]  5% [|||                                                         ]  5% [|||                                                         ]  5% [|||                                                         ]  5% [|||                                                         ]  5% [|||                                                         ]  5% [|||                                                         ]  5% [|||                                                         ]  6% [|||                                                         ]  6% [|||                                                         ]  6% [|||                                                         ]  6% [|||                                                         ]  6% [|||                                                         ]  6% [|||                                                         ]  6% [||||                                                        ]  6% [||||                                                        ]  6% [||||                                                        ]  6% [||||                                                        ]  7% [||||                                                        ]  7% [||||                                                        ]  7% [||||                                                        ]  7% [||||                                                        ]  7% [||||                                                        ]  7% [||||                                                        ]  7% [||||                                                        ]  7% [||||                                                        ]  7% [||||                                                        ]  7% [||||                                                        ]  8% [||||                                                        ]  8% [||||                                                        ]  8% [||||                                                        ]  8% [|||||                                                       ]  8% [|||||                                                       ]  8% [|||||                                                       ]  8% [|||||                                                       ]  8% [|||||                                                       ]  8% [|||||                                                       ]  8% [|||||                                                       ]  9% [|||||                                                       ]  9% [|||||                                                       ]  9% [|||||                                                       ]  9% [|||||                                                       ]  9% [|||||                                                       ]  9% [|||||                                                       ]  9% [|||||                                                       ]  9% [|||||                                                       ]  9% [|||||                                                       ]  9% [|||||                                                       ] 10% [||||||                                                      ] 10% [||||||                                                      ] 10% [||||||                                                      ] 10% [||||||                                                      ] 10% [||||||                                                      ] 10% [||||||                                                      ] 10% [||||||                                                      ] 10% [||||||                                                      ] 10% [||||||                                                      ] 10% [||||||                                                      ] 11% [||||||                                                      ] 11% [||||||                                                      ] 11% [||||||                                                      ] 11% [||||||                                                      ] 11% [||||||                                                      ] 11% [||||||                                                      ] 11% [||||||                                                      ] 11% [|||||||                                                     ] 11% [|||||||                                                     ] 11% [|||||||                                                     ] 12% [|||||||                                                     ] 12% [|||||||                                                     ] 12% [|||||||                                                     ] 12% [|||||||                                                     ] 12% [|||||||                                                     ] 12% [|||||||                                                     ] 12% [|||||||                                                     ] 12% [|||||||                                                     ] 12% [|||||||                                                     ] 12% [|||||||                                                     ] 13% [|||||||                                                     ] 13% [|||||||                                                     ] 13% [|||||||                                                     ] 13% [||||||||                                                    ] 13% [||||||||                                                    ] 13% [||||||||                                                    ] 13% [||||||||                                                    ] 13% [||||||||                                                    ] 13% [||||||||                                                    ] 13% [||||||||                                                    ] 14% [||||||||                                                    ] 14% [||||||||                                                    ] 14% [||||||||                                                    ] 14% [||||||||                                                    ] 14% [||||||||                                                    ] 14% [||||||||                                                    ] 14% [||||||||                                                    ] 14% [||||||||                                                    ] 14% [||||||||                                                    ] 14% [||||||||                                                    ] 15% [|||||||||                                                   ] 15% [|||||||||                                                   ] 15% [|||||||||                                                   ] 15% [|||||||||                                                   ] 15% [|||||||||                                                   ] 15% [|||||||||                                                   ] 15% [|||||||||                                                   ] 15% [|||||||||                                                   ] 15% [|||||||||                                                   ] 15% [|||||||||                                                   ] 16% [|||||||||                                                   ] 16% [|||||||||                                                   ] 16% [|||||||||                                                   ] 16% [|||||||||                                                   ] 16% [|||||||||                                                   ] 16% [|||||||||                                                   ] 16% [|||||||||                                                   ] 16% [||||||||||                                                  ] 16% [||||||||||                                                  ] 16% [||||||||||                                                  ] 17% [||||||||||                                                  ] 17% [||||||||||                                                  ] 17% [||||||||||                                                  ] 17% [||||||||||                                                  ] 17% [||||||||||                                                  ] 17% [||||||||||                                                  ] 17% [||||||||||                                                  ] 17% [||||||||||                                                  ] 17% [||||||||||                                                  ] 17% [||||||||||                                                  ] 18% [||||||||||                                                  ] 18% [||||||||||                                                  ] 18% [||||||||||                                                  ] 18% [|||||||||||                                                 ] 18% [|||||||||||                                                 ] 18% [|||||||||||                                                 ] 18% [|||||||||||                                                 ] 18% [|||||||||||                                                 ] 18% [|||||||||||                                                 ] 18% [|||||||||||                                                 ] 19% [|||||||||||                                                 ] 19% [|||||||||||                                                 ] 19% [|||||||||||                                                 ] 19% [|||||||||||                                                 ] 19% [|||||||||||                                                 ] 19% [|||||||||||                                                 ] 19% [|||||||||||                                                 ] 19% [|||||||||||                                                 ] 19% [|||||||||||                                                 ] 19% [|||||||||||                                                 ] 20% [||||||||||||                                                ] 20% [||||||||||||                                                ] 20% [||||||||||||                                                ] 20% [||||||||||||                                                ] 20% [||||||||||||                                                ] 20% [||||||||||||                                                ] 20% [||||||||||||                                                ] 20% [||||||||||||                                                ] 20% [||||||||||||                                                ] 20% [||||||||||||                                                ] 21% [||||||||||||                                                ] 21% [||||||||||||                                                ] 21% [||||||||||||                                                ] 21% [||||||||||||                                                ] 21% [||||||||||||                                                ] 21% [||||||||||||                                                ] 21% [||||||||||||                                                ] 21% [|||||||||||||                                               ] 21% [|||||||||||||                                               ] 21% [|||||||||||||                                               ] 22% [|||||||||||||                                               ] 22% [|||||||||||||                                               ] 22% [|||||||||||||                                               ] 22% [|||||||||||||                                               ] 22% [|||||||||||||                                               ] 22% [|||||||||||||                                               ] 22% [|||||||||||||                                               ] 22% [|||||||||||||                                               ] 22% [|||||||||||||                                               ] 22% [|||||||||||||                                               ] 23% [|||||||||||||                                               ] 23% [|||||||||||||                                               ] 23% [|||||||||||||                                               ] 23% [|||||||||||||                                               ] 23% [||||||||||||||                                              ] 23% [||||||||||||||                                              ] 23% [||||||||||||||                                              ] 23% [||||||||||||||                                              ] 23% [||||||||||||||                                              ] 23% [||||||||||||||                                              ] 24% [||||||||||||||                                              ] 24% [||||||||||||||                                              ] 24% [||||||||||||||                                              ] 24% [||||||||||||||                                              ] 24% [||||||||||||||                                              ] 24% [||||||||||||||                                              ] 24% [||||||||||||||                                              ] 24% [||||||||||||||                                              ] 24% [||||||||||||||                                              ] 24% [||||||||||||||                                              ] 25% [|||||||||||||||                                             ] 25% [|||||||||||||||                                             ] 25% [|||||||||||||||                                             ] 25% [|||||||||||||||                                             ] 25% [|||||||||||||||                                             ] 25% [|||||||||||||||                                             ] 25% [|||||||||||||||                                             ] 25% [|||||||||||||||                                             ] 25% [|||||||||||||||                                             ] 25% [|||||||||||||||                                             ] 26% [|||||||||||||||                                             ] 26% [|||||||||||||||                                             ] 26% [|||||||||||||||                                             ] 26% [|||||||||||||||                                             ] 26% [|||||||||||||||                                             ] 26% [|||||||||||||||                                             ] 26% [|||||||||||||||                                             ] 26% [||||||||||||||||                                            ] 26% [||||||||||||||||                                            ] 26% [||||||||||||||||                                            ] 27% [||||||||||||||||                                            ] 27% [||||||||||||||||                                            ] 27% [||||||||||||||||                                            ] 27% [||||||||||||||||                                            ] 27% [||||||||||||||||                                            ] 27% [||||||||||||||||                                            ] 27% [||||||||||||||||                                            ] 27% [||||||||||||||||                                            ] 27% [||||||||||||||||                                            ] 27% [||||||||||||||||                                            ] 28% [||||||||||||||||                                            ] 28% [||||||||||||||||                                            ] 28% [||||||||||||||||                                            ] 28% [||||||||||||||||                                            ] 28% [|||||||||||||||||                                           ] 28% [|||||||||||||||||                                           ] 28% [|||||||||||||||||                                           ] 28% [|||||||||||||||||                                           ] 28% [|||||||||||||||||                                           ] 28% [|||||||||||||||||                                           ] 29% [|||||||||||||||||                                           ] 29% [|||||||||||||||||                                           ] 29% [|||||||||||||||||                                           ] 29% [|||||||||||||||||                                           ] 29% [|||||||||||||||||                                           ] 29% [|||||||||||||||||                                           ] 29% [|||||||||||||||||                                           ] 29% [|||||||||||||||||                                           ] 29% [|||||||||||||||||                                           ] 29% [|||||||||||||||||                                           ] 30% [||||||||||||||||||                                          ] 30% [||||||||||||||||||                                          ] 30% [||||||||||||||||||                                          ] 30% [||||||||||||||||||                                          ] 30% [||||||||||||||||||                                          ] 30% [||||||||||||||||||                                          ] 30% [||||||||||||||||||                                          ] 30% [||||||||||||||||||                                          ] 30% [||||||||||||||||||                                          ] 30% [||||||||||||||||||                                          ] 31% [||||||||||||||||||                                          ] 31% [||||||||||||||||||                                          ] 31% [||||||||||||||||||                                          ] 31% [||||||||||||||||||                                          ] 31% [||||||||||||||||||                                          ] 31% [||||||||||||||||||                                          ] 31% [||||||||||||||||||                                          ] 31% [|||||||||||||||||||                                         ] 31% [|||||||||||||||||||                                         ] 31% [|||||||||||||||||||                                         ] 32% [|||||||||||||||||||                                         ] 32% [|||||||||||||||||||                                         ] 32% [|||||||||||||||||||                                         ] 32% [|||||||||||||||||||                                         ] 32% [|||||||||||||||||||                                         ] 32% [|||||||||||||||||||                                         ] 32% [|||||||||||||||||||                                         ] 32% [|||||||||||||||||||                                         ] 32% [|||||||||||||||||||                                         ] 32% [|||||||||||||||||||                                         ] 33% [|||||||||||||||||||                                         ] 33% [|||||||||||||||||||                                         ] 33% [|||||||||||||||||||                                         ] 33% [|||||||||||||||||||                                         ] 33% [||||||||||||||||||||                                        ] 33% [||||||||||||||||||||                                        ] 33% [||||||||||||||||||||                                        ] 33% [||||||||||||||||||||                                        ] 33% [||||||||||||||||||||                                        ] 33% [||||||||||||||||||||                                        ] 33% [||||||||||||||||||||                                        ] 34% [||||||||||||||||||||                                        ] 34% [||||||||||||||||||||                                        ] 34% [||||||||||||||||||||                                        ] 34% [||||||||||||||||||||                                        ] 34% [||||||||||||||||||||                                        ] 34% [||||||||||||||||||||                                        ] 34% [||||||||||||||||||||                                        ] 34% [||||||||||||||||||||                                        ] 34% [||||||||||||||||||||                                        ] 34% [||||||||||||||||||||                                        ] 35% [|||||||||||||||||||||                                       ] 35% [|||||||||||||||||||||                                       ] 35% [|||||||||||||||||||||                                       ] 35% [|||||||||||||||||||||                                       ] 35% [|||||||||||||||||||||                                       ] 35% [|||||||||||||||||||||                                       ] 35% [|||||||||||||||||||||                                       ] 35% [|||||||||||||||||||||                                       ] 35% [|||||||||||||||||||||                                       ] 35% [|||||||||||||||||||||                                       ] 36% [|||||||||||||||||||||                                       ] 36% [|||||||||||||||||||||                                       ] 36% [|||||||||||||||||||||                                       ] 36% [|||||||||||||||||||||                                       ] 36% [|||||||||||||||||||||                                       ] 36% [|||||||||||||||||||||                                       ] 36% [||||||||||||||||||||||                                      ] 36% [||||||||||||||||||||||                                      ] 36% [||||||||||||||||||||||                                      ] 36% [||||||||||||||||||||||                                      ] 37% [||||||||||||||||||||||                                      ] 37% [||||||||||||||||||||||                                      ] 37% [||||||||||||||||||||||                                      ] 37% [||||||||||||||||||||||                                      ] 37% [||||||||||||||||||||||                                      ] 37% [||||||||||||||||||||||                                      ] 37% [||||||||||||||||||||||                                      ] 37% [||||||||||||||||||||||                                      ] 37% [||||||||||||||||||||||                                      ] 37% [||||||||||||||||||||||                                      ] 38% [||||||||||||||||||||||                                      ] 38% [||||||||||||||||||||||                                      ] 38% [||||||||||||||||||||||                                      ] 38% [|||||||||||||||||||||||                                     ] 38% [|||||||||||||||||||||||                                     ] 38% [|||||||||||||||||||||||                                     ] 38% [|||||||||||||||||||||||                                     ] 38% [|||||||||||||||||||||||                                     ] 38% [|||||||||||||||||||||||                                     ] 38% [|||||||||||||||||||||||                                     ] 39% [|||||||||||||||||||||||                                     ] 39% [|||||||||||||||||||||||                                     ] 39% [|||||||||||||||||||||||                                     ] 39% [|||||||||||||||||||||||                                     ] 39% [|||||||||||||||||||||||                                     ] 39% [|||||||||||||||||||||||                                     ] 39% [|||||||||||||||||||||||                                     ] 39% [|||||||||||||||||||||||                                     ] 39% [|||||||||||||||||||||||                                     ] 39% [|||||||||||||||||||||||                                     ] 40% [||||||||||||||||||||||||                                    ] 40% [||||||||||||||||||||||||                                    ] 40% [||||||||||||||||||||||||                                    ] 40% [||||||||||||||||||||||||                                    ] 40% [||||||||||||||||||||||||                                    ] 40% [||||||||||||||||||||||||                                    ] 40% [||||||||||||||||||||||||                                    ] 40% [||||||||||||||||||||||||                                    ] 40% [||||||||||||||||||||||||                                    ] 40% [||||||||||||||||||||||||                                    ] 41% [||||||||||||||||||||||||                                    ] 41% [||||||||||||||||||||||||                                    ] 41% [||||||||||||||||||||||||                                    ] 41% [||||||||||||||||||||||||                                    ] 41% [||||||||||||||||||||||||                                    ] 41% [||||||||||||||||||||||||                                    ] 41% [|||||||||||||||||||||||||                                   ] 41% [|||||||||||||||||||||||||                                   ] 41% [|||||||||||||||||||||||||                                   ] 41% [|||||||||||||||||||||||||                                   ] 42% [|||||||||||||||||||||||||                                   ] 42% [|||||||||||||||||||||||||                                   ] 42% [|||||||||||||||||||||||||                                   ] 42% [|||||||||||||||||||||||||                                   ] 42% [|||||||||||||||||||||||||                                   ] 42% [|||||||||||||||||||||||||                                   ] 42% [|||||||||||||||||||||||||                                   ] 42% [|||||||||||||||||||||||||                                   ] 42% [|||||||||||||||||||||||||                                   ] 42% [|||||||||||||||||||||||||                                   ] 43% [|||||||||||||||||||||||||                                   ] 43% [|||||||||||||||||||||||||                                   ] 43% [|||||||||||||||||||||||||                                   ] 43% [||||||||||||||||||||||||||                                  ] 43% [||||||||||||||||||||||||||                                  ] 43% [||||||||||||||||||||||||||                                  ] 43% [||||||||||||||||||||||||||                                  ] 43% [||||||||||||||||||||||||||                                  ] 43% [||||||||||||||||||||||||||                                  ] 43% [||||||||||||||||||||||||||                                  ] 44% [||||||||||||||||||||||||||                                  ] 44% [||||||||||||||||||||||||||                                  ] 44% [||||||||||||||||||||||||||                                  ] 44% [||||||||||||||||||||||||||                                  ] 44% [||||||||||||||||||||||||||                                  ] 44% [||||||||||||||||||||||||||                                  ] 44% [||||||||||||||||||||||||||                                  ] 44% [||||||||||||||||||||||||||                                  ] 44% [||||||||||||||||||||||||||                                  ] 44% [||||||||||||||||||||||||||                                  ] 45% [|||||||||||||||||||||||||||                                 ] 45% [|||||||||||||||||||||||||||                                 ] 45% [|||||||||||||||||||||||||||                                 ] 45% [|||||||||||||||||||||||||||                                 ] 45% [|||||||||||||||||||||||||||                                 ] 45% [|||||||||||||||||||||||||||                                 ] 45% [|||||||||||||||||||||||||||                                 ] 45% [|||||||||||||||||||||||||||                                 ] 45% [|||||||||||||||||||||||||||                                 ] 45% [|||||||||||||||||||||||||||                                 ] 46% [|||||||||||||||||||||||||||                                 ] 46% [|||||||||||||||||||||||||||                                 ] 46% [|||||||||||||||||||||||||||                                 ] 46% [|||||||||||||||||||||||||||                                 ] 46% [|||||||||||||||||||||||||||                                 ] 46% [|||||||||||||||||||||||||||                                 ] 46% [|||||||||||||||||||||||||||                                 ] 46% [||||||||||||||||||||||||||||                                ] 46% [||||||||||||||||||||||||||||                                ] 46% [||||||||||||||||||||||||||||                                ] 47% [||||||||||||||||||||||||||||                                ] 47% [||||||||||||||||||||||||||||                                ] 47% [||||||||||||||||||||||||||||                                ] 47% [||||||||||||||||||||||||||||                                ] 47% [||||||||||||||||||||||||||||                                ] 47% [||||||||||||||||||||||||||||                                ] 47% [||||||||||||||||||||||||||||                                ] 47% [||||||||||||||||||||||||||||                                ] 47% [||||||||||||||||||||||||||||                                ] 47% [||||||||||||||||||||||||||||                                ] 48% [||||||||||||||||||||||||||||                                ] 48% [||||||||||||||||||||||||||||                                ] 48% [||||||||||||||||||||||||||||                                ] 48% [|||||||||||||||||||||||||||||                               ] 48% [|||||||||||||||||||||||||||||                               ] 48% [|||||||||||||||||||||||||||||                               ] 48% [|||||||||||||||||||||||||||||                               ] 48% [|||||||||||||||||||||||||||||                               ] 48% [|||||||||||||||||||||||||||||                               ] 48% [|||||||||||||||||||||||||||||                               ] 49% [|||||||||||||||||||||||||||||                               ] 49% [|||||||||||||||||||||||||||||                               ] 49% [|||||||||||||||||||||||||||||                               ] 49% [|||||||||||||||||||||||||||||                               ] 49% [|||||||||||||||||||||||||||||                               ] 49% [|||||||||||||||||||||||||||||                               ] 49% [|||||||||||||||||||||||||||||                               ] 49% [|||||||||||||||||||||||||||||                               ] 49% [|||||||||||||||||||||||||||||                               ] 49% [|||||||||||||||||||||||||||||                               ] 50% [||||||||||||||||||||||||||||||                              ] 50% [||||||||||||||||||||||||||||||                              ] 50% [||||||||||||||||||||||||||||||                              ] 50% [||||||||||||||||||||||||||||||                              ] 50% [||||||||||||||||||||||||||||||                              ] 50% [||||||||||||||||||||||||||||||                              ] 50% [||||||||||||||||||||||||||||||                              ] 50% [||||||||||||||||||||||||||||||                              ] 50% [||||||||||||||||||||||||||||||                              ] 50% [||||||||||||||||||||||||||||||                              ] 51% [||||||||||||||||||||||||||||||                              ] 51% [||||||||||||||||||||||||||||||                              ] 51% [||||||||||||||||||||||||||||||                              ] 51% [||||||||||||||||||||||||||||||                              ] 51% [||||||||||||||||||||||||||||||                              ] 51% [||||||||||||||||||||||||||||||                              ] 51% [||||||||||||||||||||||||||||||                              ] 51% [|||||||||||||||||||||||||||||||                             ] 51% [|||||||||||||||||||||||||||||||                             ] 51% [|||||||||||||||||||||||||||||||                             ] 52% [|||||||||||||||||||||||||||||||                             ] 52% [|||||||||||||||||||||||||||||||                             ] 52% [|||||||||||||||||||||||||||||||                             ] 52% [|||||||||||||||||||||||||||||||                             ] 52% [|||||||||||||||||||||||||||||||                             ] 52% [|||||||||||||||||||||||||||||||                             ] 52% [|||||||||||||||||||||||||||||||                             ] 52% [|||||||||||||||||||||||||||||||                             ] 52% [|||||||||||||||||||||||||||||||                             ] 52% [|||||||||||||||||||||||||||||||                             ] 53% [|||||||||||||||||||||||||||||||                             ] 53% [|||||||||||||||||||||||||||||||                             ] 53% [|||||||||||||||||||||||||||||||                             ] 53% [||||||||||||||||||||||||||||||||                            ] 53% [||||||||||||||||||||||||||||||||                            ] 53% [||||||||||||||||||||||||||||||||                            ] 53% [||||||||||||||||||||||||||||||||                            ] 53% [||||||||||||||||||||||||||||||||                            ] 53% [||||||||||||||||||||||||||||||||                            ] 53% [||||||||||||||||||||||||||||||||                            ] 54% [||||||||||||||||||||||||||||||||                            ] 54% [||||||||||||||||||||||||||||||||                            ] 54% [||||||||||||||||||||||||||||||||                            ] 54% [||||||||||||||||||||||||||||||||                            ] 54% [||||||||||||||||||||||||||||||||                            ] 54% [||||||||||||||||||||||||||||||||                            ] 54% [||||||||||||||||||||||||||||||||                            ] 54% [||||||||||||||||||||||||||||||||                            ] 54% [||||||||||||||||||||||||||||||||                            ] 54% [||||||||||||||||||||||||||||||||                            ] 55% [|||||||||||||||||||||||||||||||||                           ] 55% [|||||||||||||||||||||||||||||||||                           ] 55% [|||||||||||||||||||||||||||||||||                           ] 55% [|||||||||||||||||||||||||||||||||                           ] 55% [|||||||||||||||||||||||||||||||||                           ] 55% [|||||||||||||||||||||||||||||||||                           ] 55% [|||||||||||||||||||||||||||||||||                           ] 55% [|||||||||||||||||||||||||||||||||                           ] 55% [|||||||||||||||||||||||||||||||||                           ] 55% [|||||||||||||||||||||||||||||||||                           ] 56% [|||||||||||||||||||||||||||||||||                           ] 56% [|||||||||||||||||||||||||||||||||                           ] 56% [|||||||||||||||||||||||||||||||||                           ] 56% [|||||||||||||||||||||||||||||||||                           ] 56% [|||||||||||||||||||||||||||||||||                           ] 56% [|||||||||||||||||||||||||||||||||                           ] 56% [|||||||||||||||||||||||||||||||||                           ] 56% [||||||||||||||||||||||||||||||||||                          ] 56% [||||||||||||||||||||||||||||||||||                          ] 56% [||||||||||||||||||||||||||||||||||                          ] 57% [||||||||||||||||||||||||||||||||||                          ] 57% [||||||||||||||||||||||||||||||||||                          ] 57% [||||||||||||||||||||||||||||||||||                          ] 57% [||||||||||||||||||||||||||||||||||                          ] 57% [||||||||||||||||||||||||||||||||||                          ] 57% [||||||||||||||||||||||||||||||||||                          ] 57% [||||||||||||||||||||||||||||||||||                          ] 57% [||||||||||||||||||||||||||||||||||                          ] 57% [||||||||||||||||||||||||||||||||||                          ] 57% [||||||||||||||||||||||||||||||||||                          ] 58% [||||||||||||||||||||||||||||||||||                          ] 58% [||||||||||||||||||||||||||||||||||                          ] 58% [||||||||||||||||||||||||||||||||||                          ] 58% [||||||||||||||||||||||||||||||||||                          ] 58% [|||||||||||||||||||||||||||||||||||                         ] 58% [|||||||||||||||||||||||||||||||||||                         ] 58% [|||||||||||||||||||||||||||||||||||                         ] 58% [|||||||||||||||||||||||||||||||||||                         ] 58% [|||||||||||||||||||||||||||||||||||                         ] 58% [|||||||||||||||||||||||||||||||||||                         ] 59% [|||||||||||||||||||||||||||||||||||                         ] 59% [|||||||||||||||||||||||||||||||||||                         ] 59% [|||||||||||||||||||||||||||||||||||                         ] 59% [|||||||||||||||||||||||||||||||||||                         ] 59% [|||||||||||||||||||||||||||||||||||                         ] 59% [|||||||||||||||||||||||||||||||||||                         ] 59% [|||||||||||||||||||||||||||||||||||                         ] 59% [|||||||||||||||||||||||||||||||||||                         ] 59% [|||||||||||||||||||||||||||||||||||                         ] 59% [|||||||||||||||||||||||||||||||||||                         ] 60% [||||||||||||||||||||||||||||||||||||                        ] 60% [||||||||||||||||||||||||||||||||||||                        ] 60% [||||||||||||||||||||||||||||||||||||                        ] 60% [||||||||||||||||||||||||||||||||||||                        ] 60% [||||||||||||||||||||||||||||||||||||                        ] 60% [||||||||||||||||||||||||||||||||||||                        ] 60% [||||||||||||||||||||||||||||||||||||                        ] 60% [||||||||||||||||||||||||||||||||||||                        ] 60% [||||||||||||||||||||||||||||||||||||                        ] 60% [||||||||||||||||||||||||||||||||||||                        ] 61% [||||||||||||||||||||||||||||||||||||                        ] 61% [||||||||||||||||||||||||||||||||||||                        ] 61% [||||||||||||||||||||||||||||||||||||                        ] 61% [||||||||||||||||||||||||||||||||||||                        ] 61% [||||||||||||||||||||||||||||||||||||                        ] 61% [||||||||||||||||||||||||||||||||||||                        ] 61% [||||||||||||||||||||||||||||||||||||                        ] 61% [|||||||||||||||||||||||||||||||||||||                       ] 61% [|||||||||||||||||||||||||||||||||||||                       ] 61% [|||||||||||||||||||||||||||||||||||||                       ] 62% [|||||||||||||||||||||||||||||||||||||                       ] 62% [|||||||||||||||||||||||||||||||||||||                       ] 62% [|||||||||||||||||||||||||||||||||||||                       ] 62% [|||||||||||||||||||||||||||||||||||||                       ] 62% [|||||||||||||||||||||||||||||||||||||                       ] 62% [|||||||||||||||||||||||||||||||||||||                       ] 62% [|||||||||||||||||||||||||||||||||||||                       ] 62% [|||||||||||||||||||||||||||||||||||||                       ] 62% [|||||||||||||||||||||||||||||||||||||                       ] 62% [|||||||||||||||||||||||||||||||||||||                       ] 63% [|||||||||||||||||||||||||||||||||||||                       ] 63% [|||||||||||||||||||||||||||||||||||||                       ] 63% [|||||||||||||||||||||||||||||||||||||                       ] 63% [|||||||||||||||||||||||||||||||||||||                       ] 63% [||||||||||||||||||||||||||||||||||||||                      ] 63% [||||||||||||||||||||||||||||||||||||||                      ] 63% [||||||||||||||||||||||||||||||||||||||                      ] 63% [||||||||||||||||||||||||||||||||||||||                      ] 63% [||||||||||||||||||||||||||||||||||||||                      ] 63% [||||||||||||||||||||||||||||||||||||||                      ] 64% [||||||||||||||||||||||||||||||||||||||                      ] 64% [||||||||||||||||||||||||||||||||||||||                      ] 64% [||||||||||||||||||||||||||||||||||||||                      ] 64% [||||||||||||||||||||||||||||||||||||||                      ] 64% [||||||||||||||||||||||||||||||||||||||                      ] 64% [||||||||||||||||||||||||||||||||||||||                      ] 64% [||||||||||||||||||||||||||||||||||||||                      ] 64% [||||||||||||||||||||||||||||||||||||||                      ] 64% [||||||||||||||||||||||||||||||||||||||                      ] 64% [||||||||||||||||||||||||||||||||||||||                      ] 65% [|||||||||||||||||||||||||||||||||||||||                     ] 65% [|||||||||||||||||||||||||||||||||||||||                     ] 65% [|||||||||||||||||||||||||||||||||||||||                     ] 65% [|||||||||||||||||||||||||||||||||||||||                     ] 65% [|||||||||||||||||||||||||||||||||||||||                     ] 65% [|||||||||||||||||||||||||||||||||||||||                     ] 65% [|||||||||||||||||||||||||||||||||||||||                     ] 65% [|||||||||||||||||||||||||||||||||||||||                     ] 65% [|||||||||||||||||||||||||||||||||||||||                     ] 65% [|||||||||||||||||||||||||||||||||||||||                     ] 66% [|||||||||||||||||||||||||||||||||||||||                     ] 66% [|||||||||||||||||||||||||||||||||||||||                     ] 66% [|||||||||||||||||||||||||||||||||||||||                     ] 66% [|||||||||||||||||||||||||||||||||||||||                     ] 66% [|||||||||||||||||||||||||||||||||||||||                     ] 66% [|||||||||||||||||||||||||||||||||||||||                     ] 66% [|||||||||||||||||||||||||||||||||||||||                     ] 66% [||||||||||||||||||||||||||||||||||||||||                    ] 66% [||||||||||||||||||||||||||||||||||||||||                    ] 66% [||||||||||||||||||||||||||||||||||||||||                    ] 66% [||||||||||||||||||||||||||||||||||||||||                    ] 67% [||||||||||||||||||||||||||||||||||||||||                    ] 67% [||||||||||||||||||||||||||||||||||||||||                    ] 67% [||||||||||||||||||||||||||||||||||||||||                    ] 67% [||||||||||||||||||||||||||||||||||||||||                    ] 67% [||||||||||||||||||||||||||||||||||||||||                    ] 67% [||||||||||||||||||||||||||||||||||||||||                    ] 67% [||||||||||||||||||||||||||||||||||||||||                    ] 67% [||||||||||||||||||||||||||||||||||||||||                    ] 67% [||||||||||||||||||||||||||||||||||||||||                    ] 67% [||||||||||||||||||||||||||||||||||||||||                    ] 68% [||||||||||||||||||||||||||||||||||||||||                    ] 68% [||||||||||||||||||||||||||||||||||||||||                    ] 68% [||||||||||||||||||||||||||||||||||||||||                    ] 68% [|||||||||||||||||||||||||||||||||||||||||                   ] 68% [|||||||||||||||||||||||||||||||||||||||||                   ] 68% [|||||||||||||||||||||||||||||||||||||||||                   ] 68% [|||||||||||||||||||||||||||||||||||||||||                   ] 68% [|||||||||||||||||||||||||||||||||||||||||                   ] 68% [|||||||||||||||||||||||||||||||||||||||||                   ] 68% [|||||||||||||||||||||||||||||||||||||||||                   ] 69% [|||||||||||||||||||||||||||||||||||||||||                   ] 69% [|||||||||||||||||||||||||||||||||||||||||                   ] 69% [|||||||||||||||||||||||||||||||||||||||||                   ] 69% [|||||||||||||||||||||||||||||||||||||||||                   ] 69% [|||||||||||||||||||||||||||||||||||||||||                   ] 69% [|||||||||||||||||||||||||||||||||||||||||                   ] 69% [|||||||||||||||||||||||||||||||||||||||||                   ] 69% [|||||||||||||||||||||||||||||||||||||||||                   ] 69% [|||||||||||||||||||||||||||||||||||||||||                   ] 69% [|||||||||||||||||||||||||||||||||||||||||                   ] 70% [||||||||||||||||||||||||||||||||||||||||||                  ] 70% [||||||||||||||||||||||||||||||||||||||||||                  ] 70% [||||||||||||||||||||||||||||||||||||||||||                  ] 70% [||||||||||||||||||||||||||||||||||||||||||                  ] 70% [||||||||||||||||||||||||||||||||||||||||||                  ] 70% [||||||||||||||||||||||||||||||||||||||||||                  ] 70% [||||||||||||||||||||||||||||||||||||||||||                  ] 70% [||||||||||||||||||||||||||||||||||||||||||                  ] 70% [||||||||||||||||||||||||||||||||||||||||||                  ] 70% [||||||||||||||||||||||||||||||||||||||||||                  ] 71% [||||||||||||||||||||||||||||||||||||||||||                  ] 71% [||||||||||||||||||||||||||||||||||||||||||                  ] 71% [||||||||||||||||||||||||||||||||||||||||||                  ] 71% [||||||||||||||||||||||||||||||||||||||||||                  ] 71% [||||||||||||||||||||||||||||||||||||||||||                  ] 71% [||||||||||||||||||||||||||||||||||||||||||                  ] 71% [|||||||||||||||||||||||||||||||||||||||||||                 ] 71% [|||||||||||||||||||||||||||||||||||||||||||                 ] 71% [|||||||||||||||||||||||||||||||||||||||||||                 ] 71% [|||||||||||||||||||||||||||||||||||||||||||                 ] 72% [|||||||||||||||||||||||||||||||||||||||||||                 ] 72% [|||||||||||||||||||||||||||||||||||||||||||                 ] 72% [|||||||||||||||||||||||||||||||||||||||||||                 ] 72% [|||||||||||||||||||||||||||||||||||||||||||                 ] 72% [|||||||||||||||||||||||||||||||||||||||||||                 ] 72% [|||||||||||||||||||||||||||||||||||||||||||                 ] 72% [|||||||||||||||||||||||||||||||||||||||||||                 ] 72% [|||||||||||||||||||||||||||||||||||||||||||                 ] 72% [|||||||||||||||||||||||||||||||||||||||||||                 ] 72% [|||||||||||||||||||||||||||||||||||||||||||                 ] 73% [|||||||||||||||||||||||||||||||||||||||||||                 ] 73% [|||||||||||||||||||||||||||||||||||||||||||                 ] 73% [|||||||||||||||||||||||||||||||||||||||||||                 ] 73% [||||||||||||||||||||||||||||||||||||||||||||                ] 73% [||||||||||||||||||||||||||||||||||||||||||||                ] 73% [||||||||||||||||||||||||||||||||||||||||||||                ] 73% [||||||||||||||||||||||||||||||||||||||||||||                ] 73% [||||||||||||||||||||||||||||||||||||||||||||                ] 73% [||||||||||||||||||||||||||||||||||||||||||||                ] 73% [||||||||||||||||||||||||||||||||||||||||||||                ] 74% [||||||||||||||||||||||||||||||||||||||||||||                ] 74% [||||||||||||||||||||||||||||||||||||||||||||                ] 74% [||||||||||||||||||||||||||||||||||||||||||||                ] 74% [||||||||||||||||||||||||||||||||||||||||||||                ] 74% [||||||||||||||||||||||||||||||||||||||||||||                ] 74% [||||||||||||||||||||||||||||||||||||||||||||                ] 74% [||||||||||||||||||||||||||||||||||||||||||||                ] 74% [||||||||||||||||||||||||||||||||||||||||||||                ] 74% [||||||||||||||||||||||||||||||||||||||||||||                ] 74% [||||||||||||||||||||||||||||||||||||||||||||                ] 75% [|||||||||||||||||||||||||||||||||||||||||||||               ] 75% [|||||||||||||||||||||||||||||||||||||||||||||               ] 75% [|||||||||||||||||||||||||||||||||||||||||||||               ] 75% [|||||||||||||||||||||||||||||||||||||||||||||               ] 75% [|||||||||||||||||||||||||||||||||||||||||||||               ] 75% [|||||||||||||||||||||||||||||||||||||||||||||               ] 75% [|||||||||||||||||||||||||||||||||||||||||||||               ] 75% [|||||||||||||||||||||||||||||||||||||||||||||               ] 75% [|||||||||||||||||||||||||||||||||||||||||||||               ] 75% [|||||||||||||||||||||||||||||||||||||||||||||               ] 76% [|||||||||||||||||||||||||||||||||||||||||||||               ] 76% [|||||||||||||||||||||||||||||||||||||||||||||               ] 76% [|||||||||||||||||||||||||||||||||||||||||||||               ] 76% [|||||||||||||||||||||||||||||||||||||||||||||               ] 76% [|||||||||||||||||||||||||||||||||||||||||||||               ] 76% [|||||||||||||||||||||||||||||||||||||||||||||               ] 76% [||||||||||||||||||||||||||||||||||||||||||||||              ] 76% [||||||||||||||||||||||||||||||||||||||||||||||              ] 76% [||||||||||||||||||||||||||||||||||||||||||||||              ] 76% [||||||||||||||||||||||||||||||||||||||||||||||              ] 77% [||||||||||||||||||||||||||||||||||||||||||||||              ] 77% [||||||||||||||||||||||||||||||||||||||||||||||              ] 77% [||||||||||||||||||||||||||||||||||||||||||||||              ] 77% [||||||||||||||||||||||||||||||||||||||||||||||              ] 77% [||||||||||||||||||||||||||||||||||||||||||||||              ] 77% [||||||||||||||||||||||||||||||||||||||||||||||              ] 77% [||||||||||||||||||||||||||||||||||||||||||||||              ] 77% [||||||||||||||||||||||||||||||||||||||||||||||              ] 77% [||||||||||||||||||||||||||||||||||||||||||||||              ] 77% [||||||||||||||||||||||||||||||||||||||||||||||              ] 78% [||||||||||||||||||||||||||||||||||||||||||||||              ] 78% [||||||||||||||||||||||||||||||||||||||||||||||              ] 78% [||||||||||||||||||||||||||||||||||||||||||||||              ] 78% [|||||||||||||||||||||||||||||||||||||||||||||||             ] 78% [|||||||||||||||||||||||||||||||||||||||||||||||             ] 78% [|||||||||||||||||||||||||||||||||||||||||||||||             ] 78% [|||||||||||||||||||||||||||||||||||||||||||||||             ] 78% [|||||||||||||||||||||||||||||||||||||||||||||||             ] 78% [|||||||||||||||||||||||||||||||||||||||||||||||             ] 78% [|||||||||||||||||||||||||||||||||||||||||||||||             ] 79% [|||||||||||||||||||||||||||||||||||||||||||||||             ] 79% [|||||||||||||||||||||||||||||||||||||||||||||||             ] 79% [|||||||||||||||||||||||||||||||||||||||||||||||             ] 79% [|||||||||||||||||||||||||||||||||||||||||||||||             ] 79% [|||||||||||||||||||||||||||||||||||||||||||||||             ] 79% [|||||||||||||||||||||||||||||||||||||||||||||||             ] 79% [|||||||||||||||||||||||||||||||||||||||||||||||             ] 79% [|||||||||||||||||||||||||||||||||||||||||||||||             ] 79% [|||||||||||||||||||||||||||||||||||||||||||||||             ] 79% [|||||||||||||||||||||||||||||||||||||||||||||||             ] 80% [||||||||||||||||||||||||||||||||||||||||||||||||            ] 80% [||||||||||||||||||||||||||||||||||||||||||||||||            ] 80% [||||||||||||||||||||||||||||||||||||||||||||||||            ] 80% [||||||||||||||||||||||||||||||||||||||||||||||||            ] 80% [||||||||||||||||||||||||||||||||||||||||||||||||            ] 80% [||||||||||||||||||||||||||||||||||||||||||||||||            ] 80% [||||||||||||||||||||||||||||||||||||||||||||||||            ] 80% [||||||||||||||||||||||||||||||||||||||||||||||||            ] 80% [||||||||||||||||||||||||||||||||||||||||||||||||            ] 80% [||||||||||||||||||||||||||||||||||||||||||||||||            ] 81% [||||||||||||||||||||||||||||||||||||||||||||||||            ] 81% [||||||||||||||||||||||||||||||||||||||||||||||||            ] 81% [||||||||||||||||||||||||||||||||||||||||||||||||            ] 81% [||||||||||||||||||||||||||||||||||||||||||||||||            ] 81% [||||||||||||||||||||||||||||||||||||||||||||||||            ] 81% [||||||||||||||||||||||||||||||||||||||||||||||||            ] 81% [||||||||||||||||||||||||||||||||||||||||||||||||            ] 81% [|||||||||||||||||||||||||||||||||||||||||||||||||           ] 81% [|||||||||||||||||||||||||||||||||||||||||||||||||           ] 81% [|||||||||||||||||||||||||||||||||||||||||||||||||           ] 82% [|||||||||||||||||||||||||||||||||||||||||||||||||           ] 82% [|||||||||||||||||||||||||||||||||||||||||||||||||           ] 82% [|||||||||||||||||||||||||||||||||||||||||||||||||           ] 82% [|||||||||||||||||||||||||||||||||||||||||||||||||           ] 82% [|||||||||||||||||||||||||||||||||||||||||||||||||           ] 82% [|||||||||||||||||||||||||||||||||||||||||||||||||           ] 82% [|||||||||||||||||||||||||||||||||||||||||||||||||           ] 82% [|||||||||||||||||||||||||||||||||||||||||||||||||           ] 82% [|||||||||||||||||||||||||||||||||||||||||||||||||           ] 82% [|||||||||||||||||||||||||||||||||||||||||||||||||           ] 83% [|||||||||||||||||||||||||||||||||||||||||||||||||           ] 83% [|||||||||||||||||||||||||||||||||||||||||||||||||           ] 83% [|||||||||||||||||||||||||||||||||||||||||||||||||           ] 83% [||||||||||||||||||||||||||||||||||||||||||||||||||          ] 83% [||||||||||||||||||||||||||||||||||||||||||||||||||          ] 83% [||||||||||||||||||||||||||||||||||||||||||||||||||          ] 83% [||||||||||||||||||||||||||||||||||||||||||||||||||          ] 83% [||||||||||||||||||||||||||||||||||||||||||||||||||          ] 83% [||||||||||||||||||||||||||||||||||||||||||||||||||          ] 83% [||||||||||||||||||||||||||||||||||||||||||||||||||          ] 84% [||||||||||||||||||||||||||||||||||||||||||||||||||          ] 84% [||||||||||||||||||||||||||||||||||||||||||||||||||          ] 84% [||||||||||||||||||||||||||||||||||||||||||||||||||          ] 84% [||||||||||||||||||||||||||||||||||||||||||||||||||          ] 84% [||||||||||||||||||||||||||||||||||||||||||||||||||          ] 84% [||||||||||||||||||||||||||||||||||||||||||||||||||          ] 84% [||||||||||||||||||||||||||||||||||||||||||||||||||          ] 84% [||||||||||||||||||||||||||||||||||||||||||||||||||          ] 84% [||||||||||||||||||||||||||||||||||||||||||||||||||          ] 84% [||||||||||||||||||||||||||||||||||||||||||||||||||          ] 85% [|||||||||||||||||||||||||||||||||||||||||||||||||||         ] 85% [|||||||||||||||||||||||||||||||||||||||||||||||||||         ] 85% [|||||||||||||||||||||||||||||||||||||||||||||||||||         ] 85% [|||||||||||||||||||||||||||||||||||||||||||||||||||         ] 85% [|||||||||||||||||||||||||||||||||||||||||||||||||||         ] 85% [|||||||||||||||||||||||||||||||||||||||||||||||||||         ] 85% [|||||||||||||||||||||||||||||||||||||||||||||||||||         ] 85% [|||||||||||||||||||||||||||||||||||||||||||||||||||         ] 85% [|||||||||||||||||||||||||||||||||||||||||||||||||||         ] 85% [|||||||||||||||||||||||||||||||||||||||||||||||||||         ] 86% [|||||||||||||||||||||||||||||||||||||||||||||||||||         ] 86% [|||||||||||||||||||||||||||||||||||||||||||||||||||         ] 86% [|||||||||||||||||||||||||||||||||||||||||||||||||||         ] 86% [|||||||||||||||||||||||||||||||||||||||||||||||||||         ] 86% [|||||||||||||||||||||||||||||||||||||||||||||||||||         ] 86% [|||||||||||||||||||||||||||||||||||||||||||||||||||         ] 86% [|||||||||||||||||||||||||||||||||||||||||||||||||||         ] 86% [||||||||||||||||||||||||||||||||||||||||||||||||||||        ] 86% [||||||||||||||||||||||||||||||||||||||||||||||||||||        ] 86% [||||||||||||||||||||||||||||||||||||||||||||||||||||        ] 87% [||||||||||||||||||||||||||||||||||||||||||||||||||||        ] 87% [||||||||||||||||||||||||||||||||||||||||||||||||||||        ] 87% [||||||||||||||||||||||||||||||||||||||||||||||||||||        ] 87% [||||||||||||||||||||||||||||||||||||||||||||||||||||        ] 87% [||||||||||||||||||||||||||||||||||||||||||||||||||||        ] 87% [||||||||||||||||||||||||||||||||||||||||||||||||||||        ] 87% [||||||||||||||||||||||||||||||||||||||||||||||||||||        ] 87% [||||||||||||||||||||||||||||||||||||||||||||||||||||        ] 87% [||||||||||||||||||||||||||||||||||||||||||||||||||||        ] 87% [||||||||||||||||||||||||||||||||||||||||||||||||||||        ] 88% [||||||||||||||||||||||||||||||||||||||||||||||||||||        ] 88% [||||||||||||||||||||||||||||||||||||||||||||||||||||        ] 88% [||||||||||||||||||||||||||||||||||||||||||||||||||||        ] 88% [|||||||||||||||||||||||||||||||||||||||||||||||||||||       ] 88% [|||||||||||||||||||||||||||||||||||||||||||||||||||||       ] 88% [|||||||||||||||||||||||||||||||||||||||||||||||||||||       ] 88% [|||||||||||||||||||||||||||||||||||||||||||||||||||||       ] 88% [|||||||||||||||||||||||||||||||||||||||||||||||||||||       ] 88% [|||||||||||||||||||||||||||||||||||||||||||||||||||||       ] 88% [|||||||||||||||||||||||||||||||||||||||||||||||||||||       ] 89% [|||||||||||||||||||||||||||||||||||||||||||||||||||||       ] 89% [|||||||||||||||||||||||||||||||||||||||||||||||||||||       ] 89% [|||||||||||||||||||||||||||||||||||||||||||||||||||||       ] 89% [|||||||||||||||||||||||||||||||||||||||||||||||||||||       ] 89% [|||||||||||||||||||||||||||||||||||||||||||||||||||||       ] 89% [|||||||||||||||||||||||||||||||||||||||||||||||||||||       ] 89% [|||||||||||||||||||||||||||||||||||||||||||||||||||||       ] 89% [|||||||||||||||||||||||||||||||||||||||||||||||||||||       ] 89% [|||||||||||||||||||||||||||||||||||||||||||||||||||||       ] 89% [|||||||||||||||||||||||||||||||||||||||||||||||||||||       ] 90% [||||||||||||||||||||||||||||||||||||||||||||||||||||||      ] 90% [||||||||||||||||||||||||||||||||||||||||||||||||||||||      ] 90% [||||||||||||||||||||||||||||||||||||||||||||||||||||||      ] 90% [||||||||||||||||||||||||||||||||||||||||||||||||||||||      ] 90% [||||||||||||||||||||||||||||||||||||||||||||||||||||||      ] 90% [||||||||||||||||||||||||||||||||||||||||||||||||||||||      ] 90% [||||||||||||||||||||||||||||||||||||||||||||||||||||||      ] 90% [||||||||||||||||||||||||||||||||||||||||||||||||||||||      ] 90% [||||||||||||||||||||||||||||||||||||||||||||||||||||||      ] 90% [||||||||||||||||||||||||||||||||||||||||||||||||||||||      ] 91% [||||||||||||||||||||||||||||||||||||||||||||||||||||||      ] 91% [||||||||||||||||||||||||||||||||||||||||||||||||||||||      ] 91% [||||||||||||||||||||||||||||||||||||||||||||||||||||||      ] 91% [||||||||||||||||||||||||||||||||||||||||||||||||||||||      ] 91% [||||||||||||||||||||||||||||||||||||||||||||||||||||||      ] 91% [||||||||||||||||||||||||||||||||||||||||||||||||||||||      ] 91% [||||||||||||||||||||||||||||||||||||||||||||||||||||||      ] 91% [|||||||||||||||||||||||||||||||||||||||||||||||||||||||     ] 91% [|||||||||||||||||||||||||||||||||||||||||||||||||||||||     ] 91% [|||||||||||||||||||||||||||||||||||||||||||||||||||||||     ] 92% [|||||||||||||||||||||||||||||||||||||||||||||||||||||||     ] 92% [|||||||||||||||||||||||||||||||||||||||||||||||||||||||     ] 92% [|||||||||||||||||||||||||||||||||||||||||||||||||||||||     ] 92% [|||||||||||||||||||||||||||||||||||||||||||||||||||||||     ] 92% [|||||||||||||||||||||||||||||||||||||||||||||||||||||||     ] 92% [|||||||||||||||||||||||||||||||||||||||||||||||||||||||     ] 92% [|||||||||||||||||||||||||||||||||||||||||||||||||||||||     ] 92% [|||||||||||||||||||||||||||||||||||||||||||||||||||||||     ] 92% [|||||||||||||||||||||||||||||||||||||||||||||||||||||||     ] 92% [|||||||||||||||||||||||||||||||||||||||||||||||||||||||     ] 93% [|||||||||||||||||||||||||||||||||||||||||||||||||||||||     ] 93% [|||||||||||||||||||||||||||||||||||||||||||||||||||||||     ] 93% [|||||||||||||||||||||||||||||||||||||||||||||||||||||||     ] 93% [|||||||||||||||||||||||||||||||||||||||||||||||||||||||     ] 93% [||||||||||||||||||||||||||||||||||||||||||||||||||||||||    ] 93% [||||||||||||||||||||||||||||||||||||||||||||||||||||||||    ] 93% [||||||||||||||||||||||||||||||||||||||||||||||||||||||||    ] 93% [||||||||||||||||||||||||||||||||||||||||||||||||||||||||    ] 93% [||||||||||||||||||||||||||||||||||||||||||||||||||||||||    ] 93% [||||||||||||||||||||||||||||||||||||||||||||||||||||||||    ] 94% [||||||||||||||||||||||||||||||||||||||||||||||||||||||||    ] 94% [||||||||||||||||||||||||||||||||||||||||||||||||||||||||    ] 94% [||||||||||||||||||||||||||||||||||||||||||||||||||||||||    ] 94% [||||||||||||||||||||||||||||||||||||||||||||||||||||||||    ] 94% [||||||||||||||||||||||||||||||||||||||||||||||||||||||||    ] 94% [||||||||||||||||||||||||||||||||||||||||||||||||||||||||    ] 94% [||||||||||||||||||||||||||||||||||||||||||||||||||||||||    ] 94% [||||||||||||||||||||||||||||||||||||||||||||||||||||||||    ] 94% [||||||||||||||||||||||||||||||||||||||||||||||||||||||||    ] 94% [||||||||||||||||||||||||||||||||||||||||||||||||||||||||    ] 95% [|||||||||||||||||||||||||||||||||||||||||||||||||||||||||   ] 95% [|||||||||||||||||||||||||||||||||||||||||||||||||||||||||   ] 95% [|||||||||||||||||||||||||||||||||||||||||||||||||||||||||   ] 95% [|||||||||||||||||||||||||||||||||||||||||||||||||||||||||   ] 95% [|||||||||||||||||||||||||||||||||||||||||||||||||||||||||   ] 95% [|||||||||||||||||||||||||||||||||||||||||||||||||||||||||   ] 95% [|||||||||||||||||||||||||||||||||||||||||||||||||||||||||   ] 95% [|||||||||||||||||||||||||||||||||||||||||||||||||||||||||   ] 95% [|||||||||||||||||||||||||||||||||||||||||||||||||||||||||   ] 95% [|||||||||||||||||||||||||||||||||||||||||||||||||||||||||   ] 96% [|||||||||||||||||||||||||||||||||||||||||||||||||||||||||   ] 96% [|||||||||||||||||||||||||||||||||||||||||||||||||||||||||   ] 96% [|||||||||||||||||||||||||||||||||||||||||||||||||||||||||   ] 96% [|||||||||||||||||||||||||||||||||||||||||||||||||||||||||   ] 96% [|||||||||||||||||||||||||||||||||||||||||||||||||||||||||   ] 96% [|||||||||||||||||||||||||||||||||||||||||||||||||||||||||   ] 96% [|||||||||||||||||||||||||||||||||||||||||||||||||||||||||   ] 96% [||||||||||||||||||||||||||||||||||||||||||||||||||||||||||  ] 96% [||||||||||||||||||||||||||||||||||||||||||||||||||||||||||  ] 96% [||||||||||||||||||||||||||||||||||||||||||||||||||||||||||  ] 97% [||||||||||||||||||||||||||||||||||||||||||||||||||||||||||  ] 97% [||||||||||||||||||||||||||||||||||||||||||||||||||||||||||  ] 97% [||||||||||||||||||||||||||||||||||||||||||||||||||||||||||  ] 97% [||||||||||||||||||||||||||||||||||||||||||||||||||||||||||  ] 97% [||||||||||||||||||||||||||||||||||||||||||||||||||||||||||  ] 97% [||||||||||||||||||||||||||||||||||||||||||||||||||||||||||  ] 97% [||||||||||||||||||||||||||||||||||||||||||||||||||||||||||  ] 97% [||||||||||||||||||||||||||||||||||||||||||||||||||||||||||  ] 97% [||||||||||||||||||||||||||||||||||||||||||||||||||||||||||  ] 97% [||||||||||||||||||||||||||||||||||||||||||||||||||||||||||  ] 98% [||||||||||||||||||||||||||||||||||||||||||||||||||||||||||  ] 98% [||||||||||||||||||||||||||||||||||||||||||||||||||||||||||  ] 98% [||||||||||||||||||||||||||||||||||||||||||||||||||||||||||  ] 98% [||||||||||||||||||||||||||||||||||||||||||||||||||||||||||  ] 98% [||||||||||||||||||||||||||||||||||||||||||||||||||||||||||| ] 98% [||||||||||||||||||||||||||||||||||||||||||||||||||||||||||| ] 98% [||||||||||||||||||||||||||||||||||||||||||||||||||||||||||| ] 98% [||||||||||||||||||||||||||||||||||||||||||||||||||||||||||| ] 98% [||||||||||||||||||||||||||||||||||||||||||||||||||||||||||| ] 98% [||||||||||||||||||||||||||||||||||||||||||||||||||||||||||| ] 99% [||||||||||||||||||||||||||||||||||||||||||||||||||||||||||| ] 99% [||||||||||||||||||||||||||||||||||||||||||||||||||||||||||| ] 99% [||||||||||||||||||||||||||||||||||||||||||||||||||||||||||| ] 99% [||||||||||||||||||||||||||||||||||||||||||||||||||||||||||| ] 99% [||||||||||||||||||||||||||||||||||||||||||||||||||||||||||| ] 99% [||||||||||||||||||||||||||||||||||||||||||||||||||||||||||| ] 99% [||||||||||||||||||||||||||||||||||||||||||||||||||||||||||| ] 99% [||||||||||||||||||||||||||||||||||||||||||||||||||||||||||| ] 99% [||||||||||||||||||||||||||||||||||||||||||||||||||||||||||| ] 99% [||||||||||||||||||||||||||||||||||||||||||||||||||||||||||| ]100% [||||||||||||||||||||||||||||||||||||||||||||||||||||||||||||]
######### Reading the Data for p #########
[...]
 Error is 0.00148354
 Error is 0.00148395
 Error is 0.00148439
 Error is 0.0014848
 Error is 0.00148522
 Error is 0.202932
 Error is 0.047957
 Error is 0.113084
 Error is 0.132303
 Error is 0.124719
 Error is 0.118598
 Error is 0.129142
 Error is 0.15063
 Error is 0.171287
 Error is 0.184317
 Error is 0.187448
 Error is 0.180948
 Error is 0.166456
 Error is 0.146414
 Error is 0.123813
 Error is 0.102032
 Error is 0.0845048
 Error is 0.0736716
 Error is 0.0693303
 Error is 0.0686781
 Error is 0.0688214
 Error is 0.0685864
 Error is 0.0685346
 Error is 0.0701599
 Error is 0.0747684
 Error is 0.0825304
 Error is 0.0923777
 Error is 0.102579
 Error is 0.111326
 Error is 0.117083
 Error is 0.118819
 Error is 0.11615
 Error is 0.109405
 Error is 0.0995821
 Error is 0.0881937
 Error is 0.0769887
 Error is 0.0675504
 Error is 0.060801
 Error is 0.0566815
 Error is 0.0543751
 Error is 0.0529651
 Error is 0.0519435
 Error is 0.0513264
 Error is 0.0514952
 Error is 0.0528994
 Error is 0.0557381
 Error is 0.059784
 Error is 0.064474
 Error is 0.0691471
 Error is 0.0732551
 Error is 0.076467
 Error is 0.0786821
 Error is 0.0799834
 Error is 0.0805665
 Error is 0.0806653
 Error is 0.0804902
 Error is 0.0801874
 Error is 0.079816
 Error is 0.0793448
 Error is 0.0786658
 Error is 0.0776224
 Error is 0.0760507
 Error is 0.0738224
 Error is 0.0708832
 Error is 0.0672768
 Error is 0.0631488
 Error is 0.05873
 Error is 0.0543023
 Error is 0.0501489
 Error is 0.0465062
 Error is 0.0435215
 Error is 0.0412376
 Error is 0.0396031
 Error is 0.0385112
 Error is 0.0378364
 Error is 0.0374659
 Error is 0.0373106
 Error is 0.0373076
 Error is 0.0374143
 Error is 0.0376067
 Error is 0.0378778
 Error is 0.0382339
 Error is 0.0386942
 Error is 0.0392853
 Error is 0.0400354
 Error is 0.0409677
 Error is 0.0420942
 Error is 0.0434104
 Error is 0.0448913
 Error is 0.0464943
 Error is 0.0481628
 Error is 0.0498335
 Error is 0.0514448
 Error is 0.0529467
 Error is 0.0543047
 Error is 0.0555042
 Error is 0.0565489
 Error is 0.0574574
 Error is 0.0582575
 Error is 0.0589803
 Error is 0.0596535
 Error is 0.0602973
 Error is 0.0609216
 Error is 0.0615246
 Error is 0.0620944
 Error is 0.0626117
 Error is 0.0630534
 Error is 0.063397
 Error is 0.0636241
 Error is 0.063723
 Error is 0.06369
 Error is 0.0635285
 Error is 0.0632484
 Error is 0.0628627
 Error is 0.062386
 Error is 0.0618312
 Error is 0.0612087
 Error is 0.0605253
 Error is 0.0597849
 Error is 0.0589889
 Error is 0.0581386
 Error is 0.0572358
 Error is 0.0562848
 Error is 0.0552931
 Error is 0.0542713
 Error is 0.0532327
 Error is 0.0521919
 Error is 0.0511635
 Error is 0.050161
 Error is 0.0491952
 Error is 0.0482734
 Error is 0.0473994
 Error is 0.0465735
 Error is 0.0457936
 Error is 0.0450561
 Error is 0.0443562
 Error is 0.0436895
 Error is 0.0430529
 Error is 0.0424443
 Error is 0.0418631
 Error is 0.0413096
 Error is 0.0407844
 Error is 0.0402888
 Error is 0.0398231
 Error is 0.0393869
 Error is 0.0389797
 Error is 0.0385995
 Error is 0.038244
 Error is 0.0379109
 Error is 0.0375978
 Error is 0.0373033
 Error is 0.0370259
 Error is 0.0367654
 Error is 0.0365219
 Error is 0.0362956
 Error is 0.0360871
 Error is 0.0358967
 Error is 0.0357244
 Error is 0.0355696
 Error is 0.0354312
 Error is 0.0353078
 Error is 0.0351975
 Error is 0.0350986
 Error is 0.0350093
 Error is 0.0349283
 Error is 0.0348546
 Error is 0.0347876
 Error is 0.0347271
 Error is 0.0346732
 Error is 0.0346259
 Error is 0.0345854
 Error is 0.034552
 Error is 0.0345253
 Error is 0.0345053
 Error is 0.0344915
 Error is 0.0344834
 Error is 0.0344805
 Error is 0.0344826
 Error is 0.0344892
 Error is 0.0345001
 Error is 0.0345154
 Error is 0.034535
 Error is 0.0345591
 Error is 0.0345875
 Error is 0.0346204
 Error is 0.0346575
 Error is 0.0346987
 Error is 0.0347433
 Error is 0.0347911
 Error is 0.0348419
 Error is 0.034895
 Error is 0.0349499
 Error is 0.0350067
 Error is 0.0350652
 Error is 0.0351254
 Error is 0.0351873
 Error is 0.0352507
 Error is 0.0353159
 Error is 0.0353828
 Error is 0.0354514
 Error is 0.0355219
 Error is 0.0355938
 Error is 0.0356671
 Error is 0.0357416
 Error is 0.0358175
 Error is 0.0358943
 Error is 0.0359723
 Error is 0.0360515
 Error is 0.0361313
 Error is 0.036212
 Error is 0.0362936
 Error is 0.0363761
 Error is 0.0364595
 Error is 0.0365433
 Error is 0.0366278
 Error is 0.0367126
 Error is 0.0367979
 Error is 0.036883
 Error is 0.0369664
 Error is 0.0370508
 Error is 0.0371351
 Error is 0.0372192
 Error is 0.0373028
 Error is 0.0373861
 Error is 0.037469
 Error is 0.0375514
 Error is 0.037633
 Error is 0.0377141
 Error is 0.0377943
 Error is 0.0378735
 Error is 0.0379516
 Error is 0.0380286
 Error is 0.0381042
 Error is 0.0381783
 Error is 0.0382512
 Error is 0.0383224
 Error is 0.0383919
 Error is 0.0384596
 Error is 0.0385257
 Error is 0.0385897
 Error is 0.0386521
 Error is 0.0387122
 Error is 0.0387702
 Error is 0.0388262
 Error is 0.03888
 Error is 0.0389316
 Error is 0.0389808
 Error is 0.039028
 Error is 0.0390728
 Error is 0.0391155
 Error is 0.039156
 Error is 0.0391944
 Error is 0.0392308
 Error is 0.0392651
 Error is 0.0392974
 Error is 0.0393278
 Error is 0.0393561
 Error is 0.0393828
 Error is 0.0394075
 Error is 0.0394305
 Error is 0.0394519
 Error is 0.0394718
 Error is 0.0394901
 Error is 0.0395072
 Error is 0.0395229
 Error is 0.0395373
 Error is 0.0395505
 Error is 0.0395627
 Error is 0.0395738
 Error is 0.0395841
 Error is 0.0395936
 Error is 0.0396021
 Error is 0.03961
 Error is 0.0396173
 Error is 0.039624
 Error is 0.03963
 Error is 0.0396358
 Error is 0.0396412
 Error is 0.039646
 Error is 0.0396507
 Error is 0.039655
 Error is 0.039659
 Error is 0.039663
 Error is 0.0396666
 Error is 0.03967
 Error is 0.0396732
 Error is 0.0396763
 Error is 0.0396793
 Error is 0.0396819
 Error is 0.0396844
 Error is 0.0396869
 Error is 0.039689
 Error is 0.0396907
 Error is 0.0396925
 Error is 0.0396941
 Error is 0.0396956
 Error is 0.0396967
 Error is 0.0396976
 Error is 0.0396982
 Error is 0.0396993
 Error is 0.0396993
 Error is 0.039699
 Error is 0.0396983
 Error is 0.0396974
 Error is 0.0396961
 Error is 0.0396943
 Error is 0.0396922
 Error is 0.0396898
 Error is 0.0396868
 Error is 0.0396835
 Error is 0.0396799
 Error is 0.0396757
 Error is 0.0396713
 Error is 0.0396663
 Error is 0.0396609
 Error is 0.0396553
 Error is 0.0396491
 Error is 0.0396426
 Error is 0.0396358
 Error is 0.0396286
 Error is 0.039621
 Error is 0.0396131
 Error is 0.0396049
 Error is 0.0395965
 Error is 0.0395877
 Error is 0.0395788
 Error is 0.0395696
 Error is 0.0395603
 Error is 0.0395508
 Error is 0.0395411
 Error is 0.0395313
 Error is 0.0395214
 Error is 0.0395114
 Error is 0.0395014
 Error is 0.0394914
 Error is 0.0394811
 Error is 0.0394711
 Error is 0.039461
 Error is 0.0394509
 Error is 0.0394409
 Error is 0.0394311
 Error is 0.0394211
 Error is 0.0394114
 Error is 0.0394017
 Error is 0.0393923
 Error is 0.0393828
 Error is 0.0393736
 Error is 0.0393643
 Error is 0.0393553
 Error is 0.0393464
 Error is 0.0393377
 Error is 0.0393292
 Error is 0.0393206
 Error is 0.0393123
 Error is 0.0393041
 Error is 0.039296
 Error is 0.0392881
 Error is 0.0392801
 Error is 0.0392724
 Error is 0.0392646
 Error is 0.0392571
 Error is 0.0392495
 Error is 0.0392421
 Error is 0.0392346
 Error is 0.0392273
 Error is 0.0392199
 Error is 0.0392126
 Error is 0.0392052
 Error is 0.039198
 Error is 0.0391906
 Error is 0.0391833
 Error is 0.039176
 Error is 0.0391687
 Error is 0.0391613
 Error is 0.0391538
 Error is 0.0391464
 Error is 0.0391389
 Error is 0.0391313
 Error is 0.0391235
 Error is 0.0391159
 Error is 0.0391081
 Error is 0.0391003
 Error is 0.0390925
 Error is 0.0390847
 Error is 0.0390765
 Error is 0.0390686
 Error is 0.0390606
 Error is 0.0390525
 Error is 0.0390444
 Error is 0.0390362
 Error is 0.039028
 Error is 0.0390198
 Error is 0.0390138
 Error is 0.0390077
 Error is 0.0390017
 Error is 0.0389956
 Error is 0.0389893
 Error is 0.0389834
 Error is 0.0389774
 Error is 0.0389712
 Error is 0.0389649
 Error is 0.0389592
 Error is 0.0389528
 Error is 0.0389469
 Error is 0.0389406
 Error is 0.0389348
 Error is 0.0389285
 Error is 0.0389227
 Error is 0.0389167
 Error is 0.0389107
 Error is 0.038905
 Error is 0.038899
 Error is 0.0388933
 Error is 0.0388875
 Error is 0.0388818
 Error is 0.0388761
 Error is 0.0388704
 Error is 0.038865
 Error is 0.0388596
 Error is 0.0388539
 Error is 0.0388484
 Error is 0.0388431
 Error is 0.0388377
 Error is 0.0388326
 Error is 0.0388274
 Error is 0.038822
 Error is 0.038817
 Error is 0.0388118
 Error is 0.0388069
 Error is 0.0388018
 Error is 0.0387968
 Error is 0.038792
 Error is 0.0387871
 Error is 0.0387822
 Error is 0.0387774
 Error is 0.0387724
 Error is 0.0387676
 Error is 0.0387629
 Error is 0.0387583
 Error is 0.0387536
 Error is 0.0387488
 Error is 0.0387441
 Error is 0.0387395
 Error is 0.0387348
 Error is 0.0387303
 Error is 0.0387256
 Error is 0.0387211
 Error is 0.0387162
 Error is 0.0387117
 Error is 0.0387071
 Error is 0.0387024
 Error is 0.0386979
 Error is 0.0386934
 Error is 0.0386888
 Error is 0.0386842
 Error is 0.0386794
 Error is 0.038675
 Error is 0.0386704
 Error is 0.0386656
 Error is 0.0386611
 Error is 0.0386564
 Error is 0.0386518
 Error is 0.0386472
 Error is 0.0386425
 Error is 0.0386381
 Error is 0.0386335
 Error is 0.0386289
 Error is 0.0386246
 Error is 0.0386198
 Error is 0.0386154
 Error is 0.0386107
 Error is 0.0386064
 Error is 0.0386018
 Error is 0.0385971
 Error is 0.038593
 Error is 0.0385884
 Error is 0.038584
 Error is 0.0385795
 Error is 0.0385752
 Error is 0.0385707
 Error is 0.0385665
 Error is 0.0385624
 Error is 0.0385581
 Error is 0.0385539
 Error is 0.0385496
 Error is 0.0385454
 Error is 0.0385417
 Error is 0.0385375
 Error is 0.0385334
 Error is 0.0385294
 Error is 0.0385254
 Error is 0.0385217
 Error is 0.0385176
 Error is 0.0385137
 Error is 0.0385099
 Error is 0.0385063
 Error is 0.0385024
 Error is 0.0384988
 Error is 0.038495
 Error is 0.0384914
 Error is 0.0384879
 Error is 0.0384844
 Error is 0.0384809
 Error is 0.0384772
 Error is 0.038474
 Error is 0.0384705
 Error is 0.0384673
 Error is 0.0384638
 Error is 0.0384606
 Error is 0.0384573
 Error is 0.0384539
 Error is 0.0384509
 Error is 0.0384477
 Error is 0.0384445
 Error is 0.0384412
 Error is 0.0384382
 Error is 0.0384352
 Error is 0.0384319
 Error is 0.0384289
 Error is 0.038426
 Error is 0.0384229
 Error is 0.0384201
 Error is 0.038417
 Error is 0.0384139
 Error is 0.0384111
 Error is 0.0384081
 Error is 0.0384052
 Error is 0.0384024
 Error is 0.0383995
 Error is 0.0383965
 Error is 0.0383936
 Error is 0.0383906
 Error is 0.0383877
 Error is 0.0383849
 Error is 0.0383824
 Error is 0.0383794
 Error is 0.0383766
 Error is 0.0383737
 Error is 0.0383708
 Error is 0.038368
 Error is 0.0383655
 Error is 0.0383628
 Error is 0.0383599
 Error is 0.0383572
 Error is 0.0383545
 Error is 0.0383517
 Error is 0.0383489
 Error is 0.0383465
 Error is 0.0383437
 Error is 0.0383411
 Error is 0.0383386
 Error is 0.0383359
 Error is 0.0383332
 Error is 0.0383306
 Error is 0.0383282
 Error is 0.0383256
 Error is 0.0383232
 Error is 0.0383207
 Error is 0.0383182
 Error is 0.0383156
 Error is 0.0383133
 Error is 0.038311
 Error is 0.0383084
 Error is 0.0383061
 Error is 0.0383038
 Error is 0.0383013
 Error is 0.0382991
 Error is 0.0382967
 Error is 0.0382944
 Error is 0.0382924
 Error is 0.0382902
 Error is 0.0382879
 Error is 0.0382857
 Error is 0.0382835
 Error is 0.0382812
 Error is 0.0382791
 Error is 0.0382771
 Error is 0.0382751
 Error is 0.0382732
 Error is 0.0382712
 Error is 0.038269
 Error is 0.0382671
 Error is 0.0382651
 Error is 0.0382631
 Error is 0.0382611
 Error is 0.0382594
 Error is 0.0382574
 Error is 0.0382556
 Error is 0.0382537
 Error is 0.0382519
 Error is 0.03825
 Error is 0.0382482
 Error is 0.0382463
 Error is 0.0382446
 Error is 0.0382427
 Error is 0.0382409
 Error is 0.0382391
 Error is 0.0382377
 Error is 0.0382359
 Error is 0.0382342
 Error is 0.0382323
 Error is 0.0382307
 Error is 0.038229
 Error is 0.0382273
 Error is 0.0382255
 Error is 0.0382241
 Error is 0.0382223
 Error is 0.0382207
 Error is 0.038219
 Error is 0.0382175
 Error is 0.0382158
 Error is 0.038214
 Error is 0.0382126
 Error is 0.038211
 Error is 0.0382092
 Error is 0.0382078
 Error is 0.0382061
 Error is 0.0382047
 Error is 0.0382031
 Error is 0.0382017
 Error is 0.0382
 Error is 0.0381984
 Error is 0.0381971
 Error is 0.0381954
 Error is 0.0381939
 Error is 0.0381926
 Error is 0.038191
 Error is 0.0381896
 Error is 0.0381881
 Error is 0.0381864
 Error is 0.0381852
 Error is 0.0381837
 Error is 0.0381824
 Error is 0.0381809
 Error is 0.0381796
 Error is 0.038178
 Error is 0.0381768
 Error is 0.0381754
 Error is 0.038174
 Error is 0.0381727
 Error is 0.0381714
 Error is 0.03817
 Error is 0.0381686
 Error is 0.0381672
 Error is 0.0381663
 Error is 0.0381649
 Error is 0.0381634
 Error is 0.0381621
 Error is 0.0381612
 Error is 0.0381599
 Error is 0.0381588
 Error is 0.0381575
 Error is 0.0381564
 Error is 0.0381551
 Error is 0.0381541
 Error is 0.0381527
 Error is 0.0381516
 Error is 0.0381503
 Error is 0.0381497
 Error is 0.0381482
 Error is 0.0381469
 Error is 0.0381462
 Error is 0.0381449
 Error is 0.0381436
 Error is 0.038143
 Error is 0.0381417
 Error is 0.0381406
 Error is 0.0381396
 Error is 0.0381385
 Error is 0.0381375
 Error is 0.0381366
 Error is 0.0381355
 Error is 0.0381344
 Error is 0.0381336
 Error is 0.0381327
 Error is 0.0381316
 Error is 0.0381306
 Error is 0.0381297
 Error is 0.0381286
 Error is 0.0381276
 Error is 0.0381269
 Error is 0.0381259
 Error is 0.0381244
 Error is 0.0381239
 Error is 0.0381229
 Error is 0.0381219
 Error is 0.0381211
 Error is 0.03812
 Error is 0.0381191
 Error is 0.0381183
 Error is 0.0381174
 Error is 0.0381162
 Error is 0.0381156
 Error is 0.0381147
 Error is 0.0381138
 Error is 0.0381129
 Error is 0.038112
 Error is 0.0381112
 Error is 0.0381102
 Error is 0.0381095
 Error is 0.0381091
 Error is 0.0381081
 Error is 0.0381063
 Error is 0.038106
 Error is 0.0381055
 Error is 0.0381042
 Error is 0.0381034
 Error is 0.0381027
 Error is 0.0381019
 Error is 0.0381012
 Error is 0.0381005
 Error is 0.0380997
 Error is 0.0380985
 Error is 0.0380982
 Error is 0.0380972
 Error is 0.0380968
 Error is 0.0380959
 Error is 0.0380953
 Error is 0.0380941
 Error is 0.0380931
 Error is 0.0380931
 Error is 0.0380923
 Error is 0.0380913
 Error is 0.0380904
 Error is 0.0380896
 Error is 0.0380889
 Error is 0.0380881
 Error is 0.0380871
 Error is 0.0380871
 Error is 0.0380861
 Error is 0.0380855
 Error is 0.0380848
 Error is 0.0380841
 Error is 0.0380834
 Error is 0.0380826
 Error is 0.0380823
 Error is 0.0380816
 Error is 0.0380811
 Error is 0.03808
 Error is 0.0380796
 Error is 0.0380789
 Error is 0.0380785
 Error is 0.0380779
 Error is 0.0380784
 Error is 0.0380765
 Error is 0.0380761
 Error is 0.0380751
 Error is 0.0380746
 Error is 0.0380741
 Error is 0.0380734
 Error is 0.038073
 Error is 0.0380724
 Error is 0.0380718
 Error is 0.0380711
 Error is 0.0380706
 Error is 0.0380697
 Error is 0.0380695
 Error is 0.0380689
 Error is 0.0380684
 Error is 0.0380678
 Error is 0.0380673
 Error is 0.0380666
 Error is 0.0380662
 Error is 0.0380661
 Error is 0.0380652
 Error is 0.0380646
 Error is 0.0380642
 Error is 0.0380637
 Error is 0.038063
 Error is 0.0380626
 Error is 0.038062
 Error is 0.0380614
 Error is 0.0380609
 Error is 0.0380604
 Error is 0.0380598
 Error is 0.0380596
 Error is 0.0380588
 Error is 0.0380582
 Error is 0.0380579
 Error is 0.0380577
 Error is 0.0380566
 Error is 0.0380566
 Error is 0.0380554
 Error is 0.0380556
 Error is 0.0380553
 Error is 0.0380543
 Error is 0.0380537
 Error is 0.0380536
 Error is 0.0380527
 Error is 0.0380525
 Error is 0.0380522
 Error is 0.0380518
 Error is 0.0380513
 Error is 0.0380509
 Error is 0.0380504
 Error is 0.03805
 Error is 0.0380493
 Error is 0.0380492
 Error is 0.0380487
 Error is 0.0380483
 Error is 0.0380478
 Error is 0.0380472
 Error is 0.0380469
 Error is 0.0380466
 Error is 0.0380462
 Error is 0.0380456
 Error is 0.0380452
 Error is 0.0380447
 Error is 0.0380446
 Error is 0.0380442
 Error is 0.0380434
 Error is 0.0380433
 Error is 0.0380429
 Error is 0.0380425
 Error is 0.0380422
 Error is 0.0380417
 Error is 0.0380424
 Error is 0.0380408
 Error is 0.0380407
 Error is 0.0380405
 Error is 0.0380402
 Error is 0.0380396
 Error is 0.0380391
 Error is 0.0380389
 Error is 0.0380383
 Error is 0.038038
 Error is 0.038038
 Error is 0.0380377
 Error is 0.038037
 Error is 0.0380366
 Error is 0.0380363
 Error is 0.0380361
 Error is 0.0380353
 Error is 0.0380354
 Error is 0.0380349
 Error is 0.0380351
 Error is 0.0380342
 Error is 0.0380343
 Error is 0.0380334
 Error is 0.0380335
 Error is 0.0380331
 Error is 0.0380331
 Error is 0.0380325
 Error is 0.0380319
 Error is 0.0380316
 Error is 0.0380313
 Error is 0.0380315
 Error is 0.0380308
 Error is 0.038031
 Error is 0.0380305
 Error is 0.0380299
 Error is 0.0380297
 Error is 0.0380289
 Error is 0.0380288
 Error is 0.0380283
 Error is 0.0380282
 Error is 0.0380283
 Error is 0.0380278
 Error is 0.0380274
 Error is 0.0380273
 Error is 0.0380272
 Error is 0.0380266
 Error is 0.0380263
 Error is 0.0380257
 Error is 0.0380255
 Error is 0.0380256
 Error is 0.0380252
 Error is 0.0380248
 Error is 0.0380248
 Error is 0.0380248
 Error is 0.0380251
 Error is 0.0380238
 Error is 0.0380233
 Error is 0.0380232
 Error is 0.0380239
 Error is 0.038023
 Error is 0.0380228
 Error is 0.038022
 Error is 0.038022
 Error is 0.0380218
 Error is 0.0380213
 Error is 0.0380213
 Error is 0.0380209
 Error is 0.0380208
 Error is 0.0380203
 Error is 0.0380204
 Error is 0.0380195
 Error is 0.0380196
 Error is 0.0380197
 Error is 0.0380192
 Error is 0.0380189
 Error is 0.0380195
 Error is 0.0380185
 Error is 0.0380181
 Error is 0.038018
 Error is 0.0380178
 Error is 0.0380177
 Error is 0.0380175
 Error is 0.0380176
 Error is 0.0380169
 Error is 0.0380167
 Error is 0.0380163
 Error is 0.0380165
 Error is 0.0380163
 Error is 0.038016
 Error is 0.0380158
 Error is 0.0380155
 Error is 0.0380152
 Error is 0.0380151
 Error is 0.0380148
 Error is 0.0380145
 Error is 0.0380145
 Error is 0.0380143
 Error is 0.0380139
 Error is 0.0380136
 Error is 0.0380134
 Error is 0.0380134
 Error is 0.0380127
 Error is 0.0380126
 Error is 0.0380126
 Error is 0.0380123
 Error is 0.0380127
 Error is 0.0380119
 Error is 0.0380118
 Error is 0.038012
 Error is 0.0380112
 Error is 0.0380108
 Error is 0.0380111
 Error is 0.0380125
 Error is 0.0380111
 Error is 0.0380105
 Error is 0.0380107
 Error is 0.0380102
 Error is 0.0380102
 Error is 0.0380097
 Error is 0.038009
 Error is 0.0380104
 Error is 0.0380096
 Error is 0.0380091
 Error is 0.0380093
 Error is 0.0380089
 Error is 0.0380084
 Error is 0.0380084
 Error is 0.0380086
 Error is 0.0380083
 Error is 0.0380084
 Error is 0.0380076
 Error is 0.0380094
 Error is 0.0380085
 Error is 0.0380071
 Error is 0.0380072
 Error is 0.0380074
 Error is 0.0380068
 Error is 0.0380071
 Error is 0.0380065
 Error is 0.0380066
 Error is 0.0380063
 Error is 0.0380062
 Error is 0.0380055
 Error is 0.0380064
 Error is 0.0380053
 Error is 0.0380055
 Error is 0.0380054
 Error is 0.0380053
 Error is 0.0380048
 Error is 0.0380049
 Error is 0.0380049
 Error is 0.0380045
 Error is 0.0380044
 Error is 0.0380042
 Error is 0.0380043
 Error is 0.0380036
 Error is 0.0380038
 Error is 0.0380033
 Error is 0.0380038
 Error is 0.0380035
 Error is 0.0380031
 Error is 0.0380032
 Error is 0.0380027
 Error is 0.038003
 Error is 0.0380028
 Error is 0.0380026
 Error is 0.0380024
 Error is 0.0380018
 Error is 0.0380021
 Error is 0.038002
 Error is 0.0380018
 Error is 0.0380028
 Error is 0.0380016
 Error is 0.038001
 Error is 0.0380016
 Error is 0.0380013
 Error is 0.0379999
 Error is 0.038001
 Error is 0.0380008
 Error is 0.0380007
 Error is 0.0380008
 Error is 0.0380006
 Error is 0.0380017
 Error is 0.0380006
