/*---------------------------------------------------------------------------*\
  =========                 |
  \\      /  F ield         | OpenFOAM: The Open Source CFD Toolbox
   \\    /   O peration     | Website:  https://openfoam.org
    \\  /    A nd           | Version:  6
     \\/     M anipulation  |
\*---------------------------------------------------------------------------*/
Build  : 6
Exec   : 04unsteadyNS
Date   : Apr 04 2019
Time   : 10:55:45
Host   : "cfdclu17.ugent.be"
PID    : 46540
I/O    : uncollated
Case   : /cfdfile2/data/fm/sabrina/ITHACA-FV/tutorials/04unsteadyNS
nProcs : 1
sigFpe : Enabling floating point exception trapping (FOAM_SIGFPE).
fileModificationChecking : Monitoring run-time modified files using timeStampMaster (fileModificationSkew 10)
allowSystemOperations : Allowing user-supplied system call operations

// * * * * * * * * * * * * * * * * * * * * * * * * * * * * * * * * * * * * * //
Reading field p

Create time

Reading field p

Create mesh for time = 0


PIMPLE: No convergence criteria found


PIMPLE: Operating solver in PISO mode

Reading field p

Reading field U

Reading/calculating face flux field phi

Selecting incompressible transport model Newtonian
Selecting turbulence model type laminar
Selecting laminar stress model Stokes
No MRF models present

Reading field p

Offline don't exist, performing the Offline Solve
POD don't exist, performing a POD decomposition
Supremizers don't exist, performing a POD decomposition
Courant Number mean: 0.0345614 max: 1.88667
Time = 0

smoothSolver:  Solving for Ux, Initial residual = 1, Final residual = 1.27348e-11, No Iterations 6
smoothSolver:  Solving for Uy, Initial residual = 0.999998, Final residual = 1.67209e-11, No Iterations 6
GAMG:  Solving for p, Initial residual = 1, Final residual = 0.00438472, No Iterations 7
GAMG:  Solving for p, Initial residual = 0.00198959, Final residual = 1.81639e-05, No Iterations 3
time step continuity errors : sum local = 8.42225e-07, global = 7.05854e-08, cumulative = 7.05854e-08
GAMG:  Solving for p, Initial residual = 0.00231741, Final residual = 8.66496e-06, No Iterations 6
GAMG:  Solving for p, Initial residual = 0.000456801, Final residual = 3.77867e-06, No Iterations 3
time step continuity errors : sum local = 1.67812e-07, global = 7.71601e-10, cumulative = 7.1357e-08
GAMG:  Solving for p, Initial residual = 0.000304042, Final residual = 1.43917e-06, No Iterations 6
GAMG:  Solving for p, Initial residual = 4.5174e-05, Final residual = 6.5055e-09, No Iterations 7
time step continuity errors : sum local = 2.8866e-10, global = -2.8898e-11, cumulative = 7.13281e-08
ExecutionTime = 0.82 s  ClockTime = 2 s

Courant Number mean: 0.03347 max: 0.274035
Time = 0.01

smoothSolver:  Solving for Ux, Initial residual = 0.51332, Final residual = 9.66246e-09, No Iterations 56
smoothSolver:  Solving for Uy, Initial residual = 0.413506, Final residual = 7.25339e-09, No Iterations 72
GAMG:  Solving for p, Initial residual = 0.0327553, Final residual = 0.000119177, No Iterations 7
GAMG:  Solving for p, Initial residual = 0.00913042, Final residual = 8.0373e-05, No Iterations 3
time step continuity errors : sum local = 1.1069e-06, global = -2.62588e-08, cumulative = 4.50693e-08
GAMG:  Solving for p, Initial residual = 0.0102587, Final residual = 4.97544e-05, No Iterations 6
GAMG:  Solving for p, Initial residual = 0.00250318, Final residual = 2.13283e-05, No Iterations 3
time step continuity errors : sum local = 2.67154e-07, global = 1.39012e-08, cumulative = 5.89706e-08
GAMG:  Solving for p, Initial residual = 0.00157309, Final residual = 8.54278e-06, No Iterations 6
GAMG:  Solving for p, Initial residual = 0.000300522, Final residual = 6.23128e-09, No Iterations 9
time step continuity errors : sum local = 7.77733e-11, global = 5.05095e-12, cumulative = 5.89756e-08
ExecutionTime = 1.15 s  ClockTime = 2 s

Courant Number mean: 0.0325967 max: 0.220186
Time = 0.02

smoothSolver:  Solving for Ux, Initial residual = 0.0783749, Final residual = 9.36581e-09, No Iterations 68
smoothSolver:  Solving for Uy, Initial residual = 0.162854, Final residual = 8.44453e-09, No Iterations 82
GAMG:  Solving for p, Initial residual = 0.0297736, Final residual = 0.000168959, No Iterations 7
GAMG:  Solving for p, Initial residual = 0.00577428, Final residual = 2.76295e-05, No Iterations 4
time step continuity errors : sum local = 3.94119e-07, global = 2.59907e-08, cumulative = 8.49663e-08
GAMG:  Solving for p, Initial residual = 0.00804636, Final residual = 4.58097e-05, No Iterations 7
GAMG:  Solving for p, Initial residual = 0.00209761, Final residual = 2.0755e-05, No Iterations 3
time step continuity errors : sum local = 2.91804e-07, global = -2.85804e-08, cumulative = 5.6386e-08
GAMG:  Solving for p, Initial residual = 0.0014785, Final residual = 7.4683e-06, No Iterations 6
GAMG:  Solving for p, Initial residual = 0.000302226, Final residual = 5.9871e-09, No Iterations 9
time step continuity errors : sum local = 8.38907e-11, global = 6.01956e-12, cumulative = 5.6392e-08
ExecutionTime = 1.41 s  ClockTime = 2 s

Courant Number mean: 0.0329501 max: 0.520333
Time = 0.03

smoothSolver:  Solving for Ux, Initial residual = 0.271615, Final residual = 8.13562e-09, No Iterations 66
smoothSolver:  Solving for Uy, Initial residual = 0.0392193, Final residual = 8.48133e-09, No Iterations 76
GAMG:  Solving for p, Initial residual = 0.00501498, Final residual = 1.69444e-05, No Iterations 6
GAMG:  Solving for p, Initial residual = 0.00205074, Final residual = 1.81805e-05, No Iterations 3
time step continuity errors : sum local = 2.20456e-07, global = 1.34792e-08, cumulative = 6.98712e-08
GAMG:  Solving for p, Initial residual = 0.00277675, Final residual = 1.45664e-05, No Iterations 7
GAMG:  Solving for p, Initial residual = 0.000660809, Final residual = 3.53106e-06, No Iterations 4
time step continuity errors : sum local = 4.29239e-08, global = -3.10232e-09, cumulative = 6.67688e-08
GAMG:  Solving for p, Initial residual = 0.000537676, Final residual = 4.74596e-06, No Iterations 5
GAMG:  Solving for p, Initial residual = 8.6526e-05, Final residual = 6.30204e-09, No Iterations 8
time step continuity errors : sum local = 7.66647e-11, global = 2.5455e-12, cumulative = 6.67714e-08
ExecutionTime = 1.65 s  ClockTime = 3 s

Courant Number mean: 0.0325644 max: 0.167653
Time = 0.04

smoothSolver:  Solving for Ux, Initial residual = 0.331289, Final residual = 8.08636e-09, No Iterations 62
smoothSolver:  Solving for Uy, Initial residual = 0.0435639, Final residual = 8.87692e-09, No Iterations 66
GAMG:  Solving for p, Initial residual = 0.00299929, Final residual = 8.91945e-06, No Iterations 6
GAMG:  Solving for p, Initial residual = 0.00082195, Final residual = 7.2726e-06, No Iterations 3
time step continuity errors : sum local = 7.33206e-08, global = 4.11267e-09, cumulative = 7.08841e-08
GAMG:  Solving for p, Initial residual = 0.00111483, Final residual = 3.70053e-06, No Iterations 6
GAMG:  Solving for p, Initial residual = 0.000205171, Final residual = 1.95875e-06, No Iterations 3
time step continuity errors : sum local = 1.98621e-08, global = -1.85342e-09, cumulative = 6.90306e-08
GAMG:  Solving for p, Initial residual = 0.000146691, Final residual = 6.97073e-07, No Iterations 6
GAMG:  Solving for p, Initial residual = 2.26591e-05, Final residual = 9.4547e-09, No Iterations 6
time step continuity errors : sum local = 9.58739e-11, global = -3.40129e-12, cumulative = 6.90272e-08
ExecutionTime = 1.75 s  ClockTime = 3 s

Courant Number mean: 0.0325454 max: 0.181414
Time = 0.05

smoothSolver:  Solving for Ux, Initial residual = 0.346747, Final residual = 9.36221e-09, No Iterations 62
smoothSolver:  Solving for Uy, Initial residual = 0.0418579, Final residual = 7.57656e-09, No Iterations 70
GAMG:  Solving for p, Initial residual = 0.00210826, Final residual = 1.40053e-05, No Iterations 6
GAMG:  Solving for p, Initial residual = 0.000773944, Final residual = 7.43404e-06, No Iterations 3
time step continuity errors : sum local = 6.17994e-08, global = 1.61697e-09, cumulative = 7.06442e-08
GAMG:  Solving for p, Initial residual = 0.000540909, Final residual = 4.28713e-06, No Iterations 5
GAMG:  Solving for p, Initial residual = 9.97026e-05, Final residual = 9.49318e-07, No Iterations 3
time step continuity errors : sum local = 7.94442e-09, global = -5.45951e-10, cumulative = 7.00983e-08
GAMG:  Solving for p, Initial residual = 6.86422e-05, Final residual = 4.31061e-07, No Iterations 6
GAMG:  Solving for p, Initial residual = 2.24997e-05, Final residual = 8.18105e-09, No Iterations 6
time step continuity errors : sum local = 6.84928e-11, global = -4.28157e-12, cumulative = 7.0094e-08
ExecutionTime = 1.85 s  ClockTime = 3 s

Courant Number mean: 0.0328173 max: 0.231024
Time = 0.06

smoothSolver:  Solving for Ux, Initial residual = 0.338487, Final residual = 8.9459e-09, No Iterations 60
smoothSolver:  Solving for Uy, Initial residual = 0.0442945, Final residual = 9.15324e-09, No Iterations 66
GAMG:  Solving for p, Initial residual = 0.00176908, Final residual = 1.35933e-05, No Iterations 6
GAMG:  Solving for p, Initial residual = 0.000594104, Final residual = 5.63053e-06, No Iterations 3
time step continuity errors : sum local = 3.90364e-08, global = 1.09739e-09, cumulative = 7.11914e-08
GAMG:  Solving for p, Initial residual = 0.000345046, Final residual = 1.05773e-06, No Iterations 6
GAMG:  Solving for p, Initial residual = 7.64941e-05, Final residual = 7.12199e-07, No Iterations 3
time step continuity errors : sum local = 4.96913e-09, global = -1.54944e-10, cumulative = 7.10364e-08
GAMG:  Solving for p, Initial residual = 5.8963e-05, Final residual = 5.85008e-07, No Iterations 5
GAMG:  Solving for p, Initial residual = 1.25313e-05, Final residual = 5.46422e-09, No Iterations 6
time step continuity errors : sum local = 3.81353e-11, global = -1.84958e-12, cumulative = 7.10346e-08
ExecutionTime = 1.95 s  ClockTime = 3 s

Courant Number mean: 0.0331197 max: 0.322612
Time = 0.07

smoothSolver:  Solving for Ux, Initial residual = 0.329167, Final residual = 7.4567e-09, No Iterations 60
smoothSolver:  Solving for Uy, Initial residual = 0.0418486, Final residual = 7.47799e-09, No Iterations 66
GAMG:  Solving for p, Initial residual = 0.00151858, Final residual = 1.27868e-05, No Iterations 6
GAMG:  Solving for p, Initial residual = 0.000529488, Final residual = 5.08547e-06, No Iterations 3
time step continuity errors : sum local = 2.97688e-08, global = 8.32388e-10, cumulative = 7.1867e-08
GAMG:  Solving for p, Initial residual = 0.000245535, Final residual = 1.75112e-06, No Iterations 5
GAMG:  Solving for p, Initial residual = 5.64403e-05, Final residual = 1.4914e-07, No Iterations 4
time step continuity errors : sum local = 8.78197e-10, global = -8.78653e-11, cumulative = 7.17791e-08
GAMG:  Solving for p, Initial residual = 4.54258e-05, Final residual = 2.54329e-07, No Iterations 6
GAMG:  Solving for p, Initial residual = 1.33761e-05, Final residual = 5.04054e-09, No Iterations 6
time step continuity errors : sum local = 2.969e-11, global = -1.85986e-12, cumulative = 7.17772e-08
ExecutionTime = 2.05 s  ClockTime = 3 s

Courant Number mean: 0.0333794 max: 0.38253
Time = 0.08

smoothSolver:  Solving for Ux, Initial residual = 0.322324, Final residual = 8.18632e-09, No Iterations 58
smoothSolver:  Solving for Uy, Initial residual = 0.0390938, Final residual = 7.53777e-09, No Iterations 64
GAMG:  Solving for p, Initial residual = 0.00136765, Final residual = 1.20406e-05, No Iterations 6
GAMG:  Solving for p, Initial residual = 0.000463944, Final residual = 4.44816e-06, No Iterations 3
time step continuity errors : sum local = 2.22675e-08, global = 6.34545e-10, cumulative = 7.24118e-08
GAMG:  Solving for p, Initial residual = 0.000215533, Final residual = 1.48586e-06, No Iterations 5
GAMG:  Solving for p, Initial residual = 4.97928e-05, Final residual = 4.89763e-07, No Iterations 3
time step continuity errors : sum local = 2.46511e-09, global = -5.7104e-11, cumulative = 7.23547e-08
GAMG:  Solving for p, Initial residual = 4.00161e-05, Final residual = 2.10284e-07, No Iterations 6
GAMG:  Solving for p, Initial residual = 1.10683e-05, Final residual = 4.23394e-09, No Iterations 6
time step continuity errors : sum local = 2.13162e-11, global = -1.36259e-12, cumulative = 7.23533e-08
ExecutionTime = 2.14 s  ClockTime = 3 s

Courant Number mean: 0.0335983 max: 0.42033
Time = 0.09

smoothSolver:  Solving for Ux, Initial residual = 0.320623, Final residual = 9.47758e-09, No Iterations 56
smoothSolver:  Solving for Uy, Initial residual = 0.036063, Final residual = 8.1063e-09, No Iterations 62
GAMG:  Solving for p, Initial residual = 0.00123846, Final residual = 1.13203e-05, No Iterations 6
GAMG:  Solving for p, Initial residual = 0.000419996, Final residual = 4.06147e-06, No Iterations 3
time step continuity errors : sum local = 1.75808e-08, global = 5.0172e-10, cumulative = 7.2855e-08
GAMG:  Solving for p, Initial residual = 0.000179772, Final residual = 1.28504e-06, No Iterations 5
GAMG:  Solving for p, Initial residual = 4.36369e-05, Final residual = 4.28403e-07, No Iterations 3
time step continuity errors : sum local = 1.86382e-09, global = -5.56435e-11, cumulative = 7.27994e-08
GAMG:  Solving for p, Initial residual = 3.47662e-05, Final residual = 1.99809e-07, No Iterations 6
GAMG:  Solving for p, Initial residual = 1.03916e-05, Final residual = 3.97017e-09, No Iterations 6
time step continuity errors : sum local = 1.72769e-11, global = -1.09096e-12, cumulative = 7.27983e-08
ExecutionTime = 2.24 s  ClockTime = 3 s

Courant Number mean: 0.0337835 max: 0.445333
Time = 0.1

smoothSolver:  Solving for Ux, Initial residual = 0.324414, Final residual = 7.96005e-09, No Iterations 56
smoothSolver:  Solving for Uy, Initial residual = 0.0333123, Final residual = 8.66802e-09, No Iterations 60
GAMG:  Solving for p, Initial residual = 0.00116248, Final residual = 1.06733e-05, No Iterations 6
GAMG:  Solving for p, Initial residual = 0.000383517, Final residual = 3.724e-06, No Iterations 3
time step continuity errors : sum local = 1.40741e-08, global = 4.00286e-10, cumulative = 7.31986e-08
GAMG:  Solving for p, Initial residual = 0.000161268, Final residual = 1.18818e-06, No Iterations 5
GAMG:  Solving for p, Initial residual = 3.9981e-05, Final residual = 3.93275e-07, No Iterations 3
time step continuity errors : sum local = 1.49334e-09, global = -4.09321e-11, cumulative = 7.31576e-08
GAMG:  Solving for p, Initial residual = 3.16418e-05, Final residual = 1.83885e-07, No Iterations 6
GAMG:  Solving for p, Initial residual = 9.50202e-06, Final residual = 3.65415e-09, No Iterations 6
time step continuity errors : sum local = 1.38786e-11, global = -8.8017e-13, cumulative = 7.31568e-08
ExecutionTime = 2.34 s  ClockTime = 3 s

Courant Number mean: 0.0339412 max: 0.461957
Time = 0.11

smoothSolver:  Solving for Ux, Initial residual = 0.334101, Final residual = 9.52122e-09, No Iterations 54
smoothSolver:  Solving for Uy, Initial residual = 0.030865, Final residual = 9.43255e-09, No Iterations 58
GAMG:  Solving for p, Initial residual = 0.00110418, Final residual = 1.00992e-05, No Iterations 6
GAMG:  Solving for p, Initial residual = 0.000354331, Final residual = 3.45752e-06, No Iterations 3
time step continuity errors : sum local = 1.15034e-08, global = 3.25964e-10, cumulative = 7.34827e-08
GAMG:  Solving for p, Initial residual = 0.000146939, Final residual = 1.11844e-06, No Iterations 5
GAMG:  Solving for p, Initial residual = 3.69846e-05, Final residual = 9.90662e-08, No Iterations 4
time step continuity errors : sum local = 3.31065e-10, global = -3.30999e-11, cumulative = 7.34496e-08
GAMG:  Solving for p, Initial residual = 2.89909e-05, Final residual = 1.72994e-07, No Iterations 6
GAMG:  Solving for p, Initial residual = 8.87522e-06, Final residual = 3.41925e-09, No Iterations 6
time step continuity errors : sum local = 1.1429e-11, global = -7.23504e-13, cumulative = 7.34489e-08
ExecutionTime = 2.43 s  ClockTime = 3 s

Courant Number mean: 0.0340765 max: 0.473086
Time = 0.12

smoothSolver:  Solving for Ux, Initial residual = 0.350018, Final residual = 8.20098e-09, No Iterations 54
smoothSolver:  Solving for Uy, Initial residual = 0.0287108, Final residual = 7.32404e-09, No Iterations 58
GAMG:  Solving for p, Initial residual = 0.00105724, Final residual = 9.59198e-06, No Iterations 6
GAMG:  Solving for p, Initial residual = 0.000329627, Final residual = 3.22738e-06, No Iterations 3
time step continuity errors : sum local = 9.5206e-09, global = 2.69726e-10, cumulative = 7.37186e-08
GAMG:  Solving for p, Initial residual = 0.000136559, Final residual = 1.06614e-06, No Iterations 5
GAMG:  Solving for p, Initial residual = 3.47166e-05, Final residual = 9.31845e-08, No Iterations 4
time step continuity errors : sum local = 2.76041e-10, global = -2.80366e-11, cumulative = 7.36906e-08
GAMG:  Solving for p, Initial residual = 2.69959e-05, Final residual = 1.62888e-07, No Iterations 6
GAMG:  Solving for p, Initial residual = 8.31686e-06, Final residual = 3.21165e-09, No Iterations 6
time step continuity errors : sum local = 9.51577e-12, global = -6.02952e-13, cumulative = 7.369e-08
ExecutionTime = 2.53 s  ClockTime = 4 s

Courant Number mean: 0.0341934 max: 0.499976
Time = 0.13

smoothSolver:  Solving for Ux, Initial residual = 0.373206, Final residual = 9.96649e-09, No Iterations 52
smoothSolver:  Solving for Uy, Initial residual = 0.0267923, Final residual = 7.96638e-09, No Iterations 56
GAMG:  Solving for p, Initial residual = 0.00101612, Final residual = 9.14212e-06, No Iterations 6
GAMG:  Solving for p, Initial residual = 0.000308702, Final residual = 3.02919e-06, No Iterations 3
time step continuity errors : sum local = 7.97238e-09, global = 2.26751e-10, cumulative = 7.39167e-08
GAMG:  Solving for p, Initial residual = 0.000128032, Final residual = 1.0201e-06, No Iterations 5
GAMG:  Solving for p, Initial residual = 3.28395e-05, Final residual = 8.7895e-08, No Iterations 4
time step continuity errors : sum local = 2.32246e-10, global = -2.3977e-11, cumulative = 7.38928e-08
GAMG:  Solving for p, Initial residual = 2.53431e-05, Final residual = 1.54317e-07, No Iterations 6
GAMG:  Solving for p, Initial residual = 7.84732e-06, Final residual = 9.53002e-09, No Iterations 5
time step continuity errors : sum local = 2.5186e-11, global = -4.05415e-13, cumulative = 7.38924e-08
ExecutionTime = 2.63 s  ClockTime = 4 s

Courant Number mean: 0.0342952 max: 0.525662
Time = 0.14

smoothSolver:  Solving for Ux, Initial residual = 0.380572, Final residual = 7.99384e-09, No Iterations 52
smoothSolver:  Solving for Uy, Initial residual = 0.0250747, Final residual = 8.61852e-09, No Iterations 54
GAMG:  Solving for p, Initial residual = 0.000979902, Final residual = 8.7402e-06, No Iterations 6
GAMG:  Solving for p, Initial residual = 0.000290651, Final residual = 2.85523e-06, No Iterations 3
time step continuity errors : sum local = 6.74089e-09, global = 1.93219e-10, cumulative = 7.40856e-08
GAMG:  Solving for p, Initial residual = 0.0001212, Final residual = 9.82505e-07, No Iterations 5
GAMG:  Solving for p, Initial residual = 3.12696e-05, Final residual = 8.29872e-08, No Iterations 4
time step continuity errors : sum local = 1.96664e-10, global = -2.06522e-11, cumulative = 7.40649e-08
GAMG:  Solving for p, Initial residual = 2.40043e-05, Final residual = 1.46725e-07, No Iterations 6
GAMG:  Solving for p, Initial residual = 7.43605e-06, Final residual = 9.02254e-09, No Iterations 5
time step continuity errors : sum local = 2.13855e-11, global = -3.47504e-13, cumulative = 7.40646e-08
ExecutionTime = 2.72 s  ClockTime = 4 s

Courant Number mean: 0.0343843 max: 0.548509
Time = 0.15

smoothSolver:  Solving for Ux, Initial residual = 0.347424, Final residual = 7.85133e-09, No Iterations 50
smoothSolver:  Solving for Uy, Initial residual = 0.0235139, Final residual = 9.2989e-09, No Iterations 52
GAMG:  Solving for p, Initial residual = 0.000948009, Final residual = 8.37843e-06, No Iterations 6
GAMG:  Solving for p, Initial residual = 0.000274962, Final residual = 2.70191e-06, No Iterations 3
time step continuity errors : sum local = 5.74972e-09, global = 1.66615e-10, cumulative = 7.42312e-08
GAMG:  Solving for p, Initial residual = 0.000115596, Final residual = 9.52124e-07, No Iterations 5
GAMG:  Solving for p, Initial residual = 2.99577e-05, Final residual = 7.85849e-08, No Iterations 4
time step continuity errors : sum local = 1.67834e-10, global = -1.78964e-11, cumulative = 7.42133e-08
GAMG:  Solving for p, Initial residual = 2.28809e-05, Final residual = 1.40055e-07, No Iterations 6
GAMG:  Solving for p, Initial residual = 7.07823e-06, Final residual = 8.57628e-09, No Iterations 5
time step continuity errors : sum local = 1.83195e-11, global = -2.996e-13, cumulative = 7.4213e-08
ExecutionTime = 2.82 s  ClockTime = 4 s

Courant Number mean: 0.0344627 max: 0.568842
Time = 0.16

smoothSolver:  Solving for Ux, Initial residual = 0.313023, Final residual = 7.59107e-09, No Iterations 48
smoothSolver:  Solving for Uy, Initial residual = 0.0220827, Final residual = 7.73655e-09, No Iterations 52
GAMG:  Solving for p, Initial residual = 0.000920971, Final residual = 8.05075e-06, No Iterations 6
GAMG:  Solving for p, Initial residual = 0.000261181, Final residual = 2.56589e-06, No Iterations 3
time step continuity errors : sum local = 4.94277e-09, global = 1.45104e-10, cumulative = 7.43581e-08
GAMG:  Solving for p, Initial residual = 0.000110887, Final residual = 9.27883e-07, No Iterations 5
GAMG:  Solving for p, Initial residual = 2.88544e-05, Final residual = 7.47477e-08, No Iterations 4
time step continuity errors : sum local = 1.44487e-10, global = -1.56182e-11, cumulative = 7.43425e-08
GAMG:  Solving for p, Initial residual = 2.19249e-05, Final residual = 1.3414e-07, No Iterations 6
GAMG:  Solving for p, Initial residual = 6.76375e-06, Final residual = 8.18035e-09, No Iterations 5
time step continuity errors : sum local = 1.58151e-11, global = -2.59826e-13, cumulative = 7.43422e-08
ExecutionTime = 2.91 s  ClockTime = 4 s

Courant Number mean: 0.034532 max: 0.586951
Time = 0.17

smoothSolver:  Solving for Ux, Initial residual = 0.245931, Final residual = 7.88985e-09, No Iterations 46
smoothSolver:  Solving for Uy, Initial residual = 0.0207621, Final residual = 7.56361e-09, No Iterations 52
GAMG:  Solving for p, Initial residual = 0.000896487, Final residual = 7.75251e-06, No Iterations 6
GAMG:  Solving for p, Initial residual = 0.000248977, Final residual = 2.44472e-06, No Iterations 3
time step continuity errors : sum local = 4.27934e-09, global = 1.27473e-10, cumulative = 7.44697e-08
GAMG:  Solving for p, Initial residual = 0.00010683, Final residual = 9.07594e-07, No Iterations 5
GAMG:  Solving for p, Initial residual = 2.79056e-05, Final residual = 7.14673e-08, No Iterations 4
time step continuity errors : sum local = 1.25515e-10, global = -1.36918e-11, cumulative = 7.4456e-08
GAMG:  Solving for p, Initial residual = 2.10982e-05, Final residual = 1.2888e-07, No Iterations 6
GAMG:  Solving for p, Initial residual = 6.48539e-06, Final residual = 7.82757e-09, No Iterations 5
time step continuity errors : sum local = 1.37493e-11, global = -2.2684e-13, cumulative = 7.44558e-08
ExecutionTime = 3 s  ClockTime = 4 s

Courant Number mean: 0.0345935 max: 0.603087
Time = 0.18

smoothSolver:  Solving for Ux, Initial residual = 0.191684, Final residual = 9.38991e-09, No Iterations 44
smoothSolver:  Solving for Uy, Initial residual = 0.0195417, Final residual = 7.54189e-09, No Iterations 52
GAMG:  Solving for p, Initial residual = 0.000874273, Final residual = 7.48024e-06, No Iterations 6
GAMG:  Solving for p, Initial residual = 0.000238121, Final residual = 2.33631e-06, No Iterations 3
time step continuity errors : sum local = 3.72894e-09, global = 1.12829e-10, cumulative = 7.45686e-08
GAMG:  Solving for p, Initial residual = 0.000103286, Final residual = 8.88028e-07, No Iterations 5
GAMG:  Solving for p, Initial residual = 2.70683e-05, Final residual = 6.90539e-08, No Iterations 4
time step continuity errors : sum local = 1.10568e-10, global = -1.20503e-11, cumulative = 7.45566e-08
GAMG:  Solving for p, Initial residual = 2.03718e-05, Final residual = 1.24206e-07, No Iterations 6
GAMG:  Solving for p, Initial residual = 6.23721e-06, Final residual = 7.51072e-09, No Iterations 5
time step continuity errors : sum local = 1.20278e-11, global = -1.99753e-13, cumulative = 7.45564e-08
ExecutionTime = 3.09 s  ClockTime = 4 s

Courant Number mean: 0.0346481 max: 0.617476
Time = 0.19

smoothSolver:  Solving for Ux, Initial residual = 0.153711, Final residual = 8.14211e-09, No Iterations 44
smoothSolver:  Solving for Uy, Initial residual = 0.0184074, Final residual = 7.55845e-09, No Iterations 52
GAMG:  Solving for p, Initial residual = 0.000853883, Final residual = 7.23124e-06, No Iterations 6
GAMG:  Solving for p, Initial residual = 0.000228403, Final residual = 2.23909e-06, No Iterations 3
time step continuity errors : sum local = 3.26876e-09, global = 1.00522e-10, cumulative = 7.46569e-08
GAMG:  Solving for p, Initial residual = 0.000100167, Final residual = 8.6749e-07, No Iterations 5
GAMG:  Solving for p, Initial residual = 2.63139e-05, Final residual = 6.79101e-08, No Iterations 4
time step continuity errors : sum local = 9.94449e-11, global = -1.05691e-11, cumulative = 7.46463e-08
GAMG:  Solving for p, Initial residual = 1.97318e-05, Final residual = 1.20077e-07, No Iterations 6
GAMG:  Solving for p, Initial residual = 6.01511e-06, Final residual = 7.22383e-09, No Iterations 5
time step continuity errors : sum local = 1.05798e-11, global = -1.77988e-13, cumulative = 7.46461e-08
ExecutionTime = 3.19 s  ClockTime = 4 s

Courant Number mean: 0.0346968 max: 0.630318
Time = 0.2

smoothSolver:  Solving for Ux, Initial residual = 0.126054, Final residual = 7.42892e-09, No Iterations 44
smoothSolver:  Solving for Uy, Initial residual = 0.0173547, Final residual = 7.59014e-09, No Iterations 52
GAMG:  Solving for p, Initial residual = 0.000835305, Final residual = 7.00318e-06, No Iterations 6
GAMG:  Solving for p, Initial residual = 0.000219672, Final residual = 2.15156e-06, No Iterations 3
time step continuity errors : sum local = 2.88101e-09, global = 9.00674e-11, cumulative = 7.47362e-08
GAMG:  Solving for p, Initial residual = 9.74512e-05, Final residual = 8.44507e-07, No Iterations 5
GAMG:  Solving for p, Initial residual = 2.56423e-05, Final residual = 6.79825e-08, No Iterations 4
time step continuity errors : sum local = 9.13022e-11, global = -9.11397e-12, cumulative = 7.47271e-08
GAMG:  Solving for p, Initial residual = 1.91674e-05, Final residual = 1.16449e-07, No Iterations 6
GAMG:  Solving for p, Initial residual = 5.81558e-06, Final residual = 6.96144e-09, No Iterations 5
time step continuity errors : sum local = 9.35068e-12, global = -1.60951e-13, cumulative = 7.47269e-08
ExecutionTime = 3.28 s  ClockTime = 4 s

Courant Number mean: 0.0347403 max: 0.641789
Time = 0.21

smoothSolver:  Solving for Ux, Initial residual = 0.105174, Final residual = 9.86901e-09, No Iterations 42
smoothSolver:  Solving for Uy, Initial residual = 0.016373, Final residual = 7.62922e-09, No Iterations 52
GAMG:  Solving for p, Initial residual = 0.000818394, Final residual = 6.79352e-06, No Iterations 6
GAMG:  Solving for p, Initial residual = 0.000211834, Final residual = 2.07146e-06, No Iterations 3
time step continuity errors : sum local = 2.55073e-09, global = 8.08899e-11, cumulative = 7.48078e-08
GAMG:  Solving for p, Initial residual = 9.50748e-05, Final residual = 8.18492e-07, No Iterations 5
GAMG:  Solving for p, Initial residual = 2.5029e-05, Final residual = 6.8478e-08, No Iterations 4
time step continuity errors : sum local = 8.4565e-11, global = -7.64975e-12, cumulative = 7.48002e-08
GAMG:  Solving for p, Initial residual = 1.86624e-05, Final residual = 1.13261e-07, No Iterations 6
GAMG:  Solving for p, Initial residual = 5.63613e-06, Final residual = 6.72199e-09, No Iterations 5
time step continuity errors : sum local = 8.30225e-12, global = -1.47554e-13, cumulative = 7.48e-08
ExecutionTime = 3.37 s  ClockTime = 4 s

Courant Number mean: 0.0347792 max: 0.652045
Time = 0.22

smoothSolver:  Solving for Ux, Initial residual = 0.0890383, Final residual = 9.26501e-09, No Iterations 42
smoothSolver:  Solving for Uy, Initial residual = 0.0154561, Final residual = 7.67285e-09, No Iterations 52
GAMG:  Solving for p, Initial residual = 0.000802846, Final residual = 6.60041e-06, No Iterations 6
GAMG:  Solving for p, Initial residual = 0.000204768, Final residual = 1.99985e-06, No Iterations 3
time step continuity errors : sum local = 2.26986e-09, global = 7.31419e-11, cumulative = 7.48732e-08
GAMG:  Solving for p, Initial residual = 9.30591e-05, Final residual = 7.87908e-07, No Iterations 5
GAMG:  Solving for p, Initial residual = 2.44666e-05, Final residual = 6.84926e-08, No Iterations 4
time step continuity errors : sum local = 7.79576e-11, global = -6.29975e-12, cumulative = 7.48669e-08
GAMG:  Solving for p, Initial residual = 1.82056e-05, Final residual = 1.10387e-07, No Iterations 6
GAMG:  Solving for p, Initial residual = 5.47436e-06, Final residual = 6.50484e-09, No Iterations 5
time step continuity errors : sum local = 7.40471e-12, global = -1.36058e-13, cumulative = 7.48667e-08
ExecutionTime = 3.47 s  ClockTime = 4 s

Courant Number mean: 0.0348141 max: 0.661222
Time = 0.23

smoothSolver:  Solving for Ux, Initial residual = 0.0762729, Final residual = 8.80964e-09, No Iterations 42
smoothSolver:  Solving for Uy, Initial residual = 0.0145979, Final residual = 7.71942e-09, No Iterations 52
GAMG:  Solving for p, Initial residual = 0.000788427, Final residual = 6.42237e-06, No Iterations 6
GAMG:  Solving for p, Initial residual = 0.000198388, Final residual = 1.9349e-06, No Iterations 3
time step continuity errors : sum local = 2.02862e-09, global = 6.63909e-11, cumulative = 7.49331e-08
GAMG:  Solving for p, Initial residual = 9.1414e-05, Final residual = 7.50815e-07, No Iterations 5
GAMG:  Solving for p, Initial residual = 2.39524e-05, Final residual = 6.75062e-08, No Iterations 4
time step continuity errors : sum local = 7.09687e-11, global = -5.20099e-12, cumulative = 7.49279e-08
GAMG:  Solving for p, Initial residual = 1.77913e-05, Final residual = 1.07744e-07, No Iterations 6
GAMG:  Solving for p, Initial residual = 5.32796e-06, Final residual = 6.30916e-09, No Iterations 5
time step continuity errors : sum local = 6.6336e-12, global = -1.25324e-13, cumulative = 7.49278e-08
ExecutionTime = 3.56 s  ClockTime = 5 s

Courant Number mean: 0.0348454 max: 0.669443
Time = 0.24

smoothSolver:  Solving for Ux, Initial residual = 0.0660235, Final residual = 8.46132e-09, No Iterations 42
smoothSolver:  Solving for Uy, Initial residual = 0.0137895, Final residual = 7.76363e-09, No Iterations 52
GAMG:  Solving for p, Initial residual = 0.000775178, Final residual = 6.25816e-06, No Iterations 6
GAMG:  Solving for p, Initial residual = 0.00019261, Final residual = 1.87587e-06, No Iterations 3
time step continuity errors : sum local = 1.82029e-09, global = 6.04675e-11, cumulative = 7.49883e-08
GAMG:  Solving for p, Initial residual = 9.00838e-05, Final residual = 7.05344e-07, No Iterations 5
GAMG:  Solving for p, Initial residual = 2.34784e-05, Final residual = 6.5763e-08, No Iterations 4
time step continuity errors : sum local = 6.39836e-11, global = -4.35274e-12, cumulative = 7.49839e-08
GAMG:  Solving for p, Initial residual = 1.74138e-05, Final residual = 1.05289e-07, No Iterations 6
GAMG:  Solving for p, Initial residual = 5.19496e-06, Final residual = 6.13271e-09, No Iterations 5
time step continuity errors : sum local = 5.9675e-12, global = -1.1505e-13, cumulative = 7.49838e-08
ExecutionTime = 3.65 s  ClockTime = 5 s

Courant Number mean: 0.0348739 max: 0.676813
Time = 0.25

smoothSolver:  Solving for Ux, Initial residual = 0.0576244, Final residual = 8.16712e-09, No Iterations 42
smoothSolver:  Solving for Uy, Initial residual = 0.0130233, Final residual = 7.79262e-09, No Iterations 52
GAMG:  Solving for p, Initial residual = 0.00076291, Final residual = 6.10652e-06, No Iterations 6
GAMG:  Solving for p, Initial residual = 0.000187352, Final residual = 1.82212e-06, No Iterations 3
time step continuity errors : sum local = 1.63945e-09, global = 5.52386e-11, cumulative = 7.5039e-08
GAMG:  Solving for p, Initial residual = 8.90583e-05, Final residual = 6.50114e-07, No Iterations 5
GAMG:  Solving for p, Initial residual = 2.30343e-05, Final residual = 6.36777e-08, No Iterations 4
time step continuity errors : sum local = 5.74415e-11, global = -3.6269e-12, cumulative = 7.50354e-08
GAMG:  Solving for p, Initial residual = 1.70724e-05, Final residual = 1.03025e-07, No Iterations 6
GAMG:  Solving for p, Initial residual = 5.07361e-06, Final residual = 5.97253e-09, No Iterations 5
time step continuity errors : sum local = 5.38826e-12, global = -1.05532e-13, cumulative = 7.50353e-08
ExecutionTime = 3.75 s  ClockTime = 5 s

Courant Number mean: 0.0348998 max: 0.683427
Time = 0.26

smoothSolver:  Solving for Ux, Initial residual = 0.05067, Final residual = 7.90091e-09, No Iterations 42
smoothSolver:  Solving for Uy, Initial residual = 0.0122981, Final residual = 7.8174e-09, No Iterations 52
GAMG:  Solving for p, Initial residual = 0.000751602, Final residual = 5.96663e-06, No Iterations 6
GAMG:  Solving for p, Initial residual = 0.00018256, Final residual = 1.77309e-06, No Iterations 3
time step continuity errors : sum local = 1.4817e-09, global = 5.05978e-11, cumulative = 7.50859e-08
GAMG:  Solving for p, Initial residual = 8.82818e-05, Final residual = 5.87629e-07, No Iterations 5
GAMG:  Solving for p, Initial residual = 2.26191e-05, Final residual = 6.1623e-08, No Iterations 4
time step continuity errors : sum local = 5.16256e-11, global = -2.90958e-12, cumulative = 7.5083e-08
GAMG:  Solving for p, Initial residual = 1.67606e-05, Final residual = 1.00959e-07, No Iterations 6
GAMG:  Solving for p, Initial residual = 4.96276e-06, Final residual = 5.82587e-09, No Iterations 5
time step continuity errors : sum local = 4.88128e-12, global = -9.70453e-14, cumulative = 7.50829e-08
ExecutionTime = 3.85 s  ClockTime = 5 s

Courant Number mean: 0.0349233 max: 0.689369
Time = 0.27

smoothSolver:  Solving for Ux, Initial residual = 0.0448265, Final residual = 7.64817e-09, No Iterations 42
smoothSolver:  Solving for Uy, Initial residual = 0.0116139, Final residual = 7.84477e-09, No Iterations 52
GAMG:  Solving for p, Initial residual = 0.000741154, Final residual = 5.83687e-06, No Iterations 6
GAMG:  Solving for p, Initial residual = 0.000178195, Final residual = 1.7283e-06, No Iterations 3
time step continuity errors : sum local = 1.34349e-09, global = 4.64594e-11, cumulative = 7.51293e-08
GAMG:  Solving for p, Initial residual = 8.77117e-05, Final residual = 5.24174e-07, No Iterations 5
GAMG:  Solving for p, Initial residual = 2.22373e-05, Final residual = 6.06111e-08, No Iterations 4
time step continuity errors : sum local = 4.72316e-11, global = -2.30404e-12, cumulative = 7.5127e-08
GAMG:  Solving for p, Initial residual = 1.64795e-05, Final residual = 9.90545e-08, No Iterations 6
GAMG:  Solving for p, Initial residual = 4.86126e-06, Final residual = 5.69167e-09, No Iterations 5
time step continuity errors : sum local = 4.43576e-12, global = -8.92915e-14, cumulative = 7.5127e-08
ExecutionTime = 3.94 s  ClockTime = 5 s

Courant Number mean: 0.0349445 max: 0.69471
Time = 0.28

smoothSolver:  Solving for Ux, Initial residual = 0.0398938, Final residual = 7.41112e-09, No Iterations 42
smoothSolver:  Solving for Uy, Initial residual = 0.0109702, Final residual = 7.86494e-09, No Iterations 52
GAMG:  Solving for p, Initial residual = 0.000731409, Final residual = 5.71644e-06, No Iterations 6
GAMG:  Solving for p, Initial residual = 0.000174216, Final residual = 1.68733e-06, No Iterations 3
time step continuity errors : sum local = 1.22186e-09, global = 4.27536e-11, cumulative = 7.51697e-08
GAMG:  Solving for p, Initial residual = 8.73258e-05, Final residual = 4.81855e-07, No Iterations 5
GAMG:  Solving for p, Initial residual = 2.18995e-05, Final residual = 6.20001e-08, No Iterations 4
time step continuity errors : sum local = 4.50044e-11, global = -1.99755e-12, cumulative = 7.51677e-08
GAMG:  Solving for p, Initial residual = 1.62371e-05, Final residual = 9.72503e-08, No Iterations 6
GAMG:  Solving for p, Initial residual = 4.76805e-06, Final residual = 5.56932e-09, No Iterations 5
time step continuity errors : sum local = 4.04308e-12, global = -8.18009e-14, cumulative = 7.51676e-08
ExecutionTime = 4.03 s  ClockTime = 5 s

Courant Number mean: 0.0349635 max: 0.699518
Time = 0.29

smoothSolver:  Solving for Ux, Initial residual = 0.0356939, Final residual = 7.18335e-09, No Iterations 42
smoothSolver:  Solving for Uy, Initial residual = 0.0103663, Final residual = 7.87421e-09, No Iterations 52
GAMG:  Solving for p, Initial residual = 0.000722369, Final residual = 5.60463e-06, No Iterations 6
GAMG:  Solving for p, Initial residual = 0.00017057, Final residual = 1.64975e-06, No Iterations 3
time step continuity errors : sum local = 1.11438e-09, global = 3.94226e-11, cumulative = 7.52071e-08
GAMG:  Solving for p, Initial residual = 8.71657e-05, Final residual = 4.82203e-07, No Iterations 5
GAMG:  Solving for p, Initial residual = 2.16172e-05, Final residual = 6.49632e-08, No Iterations 4
time step continuity errors : sum local = 4.39849e-11, global = -1.76974e-12, cumulative = 7.52053e-08
GAMG:  Solving for p, Initial residual = 1.60328e-05, Final residual = 9.5558e-08, No Iterations 6
GAMG:  Solving for p, Initial residual = 4.6828e-06, Final residual = 5.45897e-09, No Iterations 5
time step continuity errors : sum local = 3.69652e-12, global = -7.46048e-14, cumulative = 7.52052e-08
ExecutionTime = 4.12 s  ClockTime = 5 s

Courant Number mean: 0.0349806 max: 0.703848
Time = 0.3

smoothSolver:  Solving for Ux, Initial residual = 0.0320874, Final residual = 9.72689e-09, No Iterations 40
smoothSolver:  Solving for Uy, Initial residual = 0.00979934, Final residual = 7.87308e-09, No Iterations 52
GAMG:  Solving for p, Initial residual = 0.000713929, Final residual = 5.50074e-06, No Iterations 6
GAMG:  Solving for p, Initial residual = 0.000167217, Final residual = 1.61524e-06, No Iterations 3
time step continuity errors : sum local = 1.01904e-09, global = 3.64184e-11, cumulative = 7.52416e-08
GAMG:  Solving for p, Initial residual = 8.71939e-05, Final residual = 5.13538e-07, No Iterations 5
GAMG:  Solving for p, Initial residual = 2.13942e-05, Final residual = 6.62239e-08, No Iterations 4
time step continuity errors : sum local = 4.18764e-11, global = -1.81325e-12, cumulative = 7.52398e-08
GAMG:  Solving for p, Initial residual = 1.58416e-05, Final residual = 9.39436e-08, No Iterations 6
GAMG:  Solving for p, Initial residual = 4.60557e-06, Final residual = 5.3625e-09, No Iterations 5
time step continuity errors : sum local = 3.39131e-12, global = -6.72581e-14, cumulative = 7.52397e-08
ExecutionTime = 4.21 s  ClockTime = 5 s

Courant Number mean: 0.0349959 max: 0.707752
Time = 0.31

smoothSolver:  Solving for Ux, Initial residual = 0.028967, Final residual = 9.43623e-09, No Iterations 40
smoothSolver:  Solving for Uy, Initial residual = 0.00926641, Final residual = 7.86101e-09, No Iterations 52
GAMG:  Solving for p, Initial residual = 0.000706279, Final residual = 5.40417e-06, No Iterations 6
GAMG:  Solving for p, Initial residual = 0.000164125, Final residual = 1.58343e-06, No Iterations 3
time step continuity errors : sum local = 9.34113e-10, global = 3.36995e-11, cumulative = 7.52734e-08
GAMG:  Solving for p, Initial residual = 8.73941e-05, Final residual = 5.56126e-07, No Iterations 5
GAMG:  Solving for p, Initial residual = 2.12177e-05, Final residual = 6.50705e-08, No Iterations 4
time step continuity errors : sum local = 3.84736e-11, global = -2.88239e-12, cumulative = 7.52706e-08
GAMG:  Solving for p, Initial residual = 1.56717e-05, Final residual = 9.2164e-08, No Iterations 6
GAMG:  Solving for p, Initial residual = 4.53231e-06, Final residual = 5.27959e-09, No Iterations 5
time step continuity errors : sum local = 3.12194e-12, global = -5.85812e-14, cumulative = 7.52705e-08
ExecutionTime = 4.31 s  ClockTime = 5 s

Courant Number mean: 0.0350097 max: 0.711275
Time = 0.32

smoothSolver:  Solving for Ux, Initial residual = 0.0262488, Final residual = 9.15222e-09, No Iterations 40
smoothSolver:  Solving for Uy, Initial residual = 0.00876569, Final residual = 7.83591e-09, No Iterations 52
GAMG:  Solving for p, Initial residual = 0.000699343, Final residual = 5.31463e-06, No Iterations 6
GAMG:  Solving for p, Initial residual = 0.000161291, Final residual = 1.55425e-06, No Iterations 3
time step continuity errors : sum local = 8.58293e-10, global = 3.12346e-11, cumulative = 7.53017e-08
GAMG:  Solving for p, Initial residual = 8.77505e-05, Final residual = 5.94854e-07, No Iterations 5
GAMG:  Solving for p, Initial residual = 2.10633e-05, Final residual = 5.30788e-08, No Iterations 4
time step continuity errors : sum local = 2.93759e-11, global = -3.84542e-12, cumulative = 7.52979e-08
GAMG:  Solving for p, Initial residual = 1.5535e-05, Final residual = 9.03348e-08, No Iterations 6
GAMG:  Solving for p, Initial residual = 4.46197e-06, Final residual = 5.20885e-09, No Iterations 5
time step continuity errors : sum local = 2.8831e-12, global = -4.9969e-14, cumulative = 7.52978e-08
ExecutionTime = 4.4 s  ClockTime = 5 s

Courant Number mean: 0.0350219 max: 0.714457
Time = 0.33

smoothSolver:  Solving for Ux, Initial residual = 0.0238667, Final residual = 8.87442e-09, No Iterations 40
smoothSolver:  Solving for Uy, Initial residual = 0.00829584, Final residual = 7.79867e-09, No Iterations 52
GAMG:  Solving for p, Initial residual = 0.000693047, Final residual = 5.23107e-06, No Iterations 6
GAMG:  Solving for p, Initial residual = 0.00015866, Final residual = 1.52715e-06, No Iterations 3
time step continuity errors : sum local = 7.90292e-10, global = 2.89924e-11, cumulative = 7.53268e-08
GAMG:  Solving for p, Initial residual = 8.82445e-05, Final residual = 6.33731e-07, No Iterations 5
GAMG:  Solving for p, Initial residual = 2.09068e-05, Final residual = 5.20571e-08, No Iterations 4
time step continuity errors : sum local = 2.69975e-11, global = -2.40989e-12, cumulative = 7.53244e-08
GAMG:  Solving for p, Initial residual = 1.54405e-05, Final residual = 8.93153e-08, No Iterations 6
GAMG:  Solving for p, Initial residual = 4.40246e-06, Final residual = 5.12669e-09, No Iterations 5
time step continuity errors : sum local = 2.65906e-12, global = -4.67315e-14, cumulative = 7.53244e-08
ExecutionTime = 4.49 s  ClockTime = 5 s

Courant Number mean: 0.0350328 max: 0.717334
Time = 0.34

smoothSolver:  Solving for Ux, Initial residual = 0.0217675, Final residual = 8.6026e-09, No Iterations 40
smoothSolver:  Solving for Uy, Initial residual = 0.00785534, Final residual = 7.74955e-09, No Iterations 52
GAMG:  Solving for p, Initial residual = 0.000687184, Final residual = 5.15296e-06, No Iterations 6
GAMG:  Solving for p, Initial residual = 0.000156234, Final residual = 1.50206e-06, No Iterations 3
time step continuity errors : sum local = 7.29135e-10, global = 2.69488e-11, cumulative = 7.53513e-08
GAMG:  Solving for p, Initial residual = 8.88439e-05, Final residual = 7.18905e-07, No Iterations 5
GAMG:  Solving for p, Initial residual = 2.08056e-05, Final residual = 5.45956e-08, No Iterations 4
time step continuity errors : sum local = 2.6558e-11, global = -2.42545e-12, cumulative = 7.53489e-08
GAMG:  Solving for p, Initial residual = 1.53848e-05, Final residual = 8.82324e-08, No Iterations 6
GAMG:  Solving for p, Initial residual = 4.34817e-06, Final residual = 5.05432e-09, No Iterations 5
time step continuity errors : sum local = 2.45895e-12, global = -4.27937e-14, cumulative = 7.53489e-08
ExecutionTime = 4.58 s  ClockTime = 6 s

Courant Number mean: 0.0350425 max: 0.720043
Time = 0.35

smoothSolver:  Solving for Ux, Initial residual = 0.0199086, Final residual = 8.33694e-09, No Iterations 40
smoothSolver:  Solving for Uy, Initial residual = 0.00744284, Final residual = 7.68902e-09, No Iterations 52
GAMG:  Solving for p, Initial residual = 0.000681898, Final residual = 5.08015e-06, No Iterations 6
GAMG:  Solving for p, Initial residual = 0.000153992, Final residual = 1.47884e-06, No Iterations 3
time step continuity errors : sum local = 6.73969e-10, global = 2.50817e-11, cumulative = 7.53739e-08
GAMG:  Solving for p, Initial residual = 8.95574e-05, Final residual = 8.61003e-07, No Iterations 5
GAMG:  Solving for p, Initial residual = 2.07909e-05, Final residual = 5.46189e-08, No Iterations 4
time step continuity errors : sum local = 2.49439e-11, global = -2.13524e-12, cumulative = 7.53718e-08
GAMG:  Solving for p, Initial residual = 1.53683e-05, Final residual = 8.73656e-08, No Iterations 6
GAMG:  Solving for p, Initial residual = 4.2931e-06, Final residual = 4.97506e-09, No Iterations 5
time step continuity errors : sum local = 2.27231e-12, global = -4.03972e-14, cumulative = 7.53718e-08
ExecutionTime = 4.67 s  ClockTime = 6 s

Courant Number mean: 0.0350511 max: 0.72258
Time = 0.36

smoothSolver:  Solving for Ux, Initial residual = 0.0182549, Final residual = 8.0781e-09, No Iterations 40
smoothSolver:  Solving for Uy, Initial residual = 0.00705608, Final residual = 7.6182e-09, No Iterations 52
GAMG:  Solving for p, Initial residual = 0.000677041, Final residual = 5.01234e-06, No Iterations 6
GAMG:  Solving for p, Initial residual = 0.00015193, Final residual = 1.45731e-06, No Iterations 3
time step continuity errors : sum local = 6.24063e-10, global = 2.33721e-11, cumulative = 7.53951e-08
GAMG:  Solving for p, Initial residual = 9.03915e-05, Final residual = 3.27452e-07, No Iterations 6
GAMG:  Solving for p, Initial residual = 2.04429e-05, Final residual = 7.49706e-08, No Iterations 4
time step continuity errors : sum local = 3.21708e-11, global = -6.08904e-13, cumulative = 7.53945e-08
GAMG:  Solving for p, Initial residual = 1.53156e-05, Final residual = 8.72718e-08, No Iterations 6
GAMG:  Solving for p, Initial residual = 4.24749e-06, Final residual = 4.87587e-09, No Iterations 5
time step continuity errors : sum local = 2.09249e-12, global = -4.29903e-14, cumulative = 7.53945e-08
ExecutionTime = 4.77 s  ClockTime = 6 s

Courant Number mean: 0.0350587 max: 0.724894
Time = 0.37

smoothSolver:  Solving for Ux, Initial residual = 0.0167777, Final residual = 7.82632e-09, No Iterations 40
smoothSolver:  Solving for Uy, Initial residual = 0.0066958, Final residual = 7.53828e-09, No Iterations 52
GAMG:  Solving for p, Initial residual = 0.000672903, Final residual = 4.94941e-06, No Iterations 6
GAMG:  Solving for p, Initial residual = 0.00015004, Final residual = 1.43737e-06, No Iterations 3
time step continuity errors : sum local = 5.78816e-10, global = 2.18047e-11, cumulative = 7.54163e-08
GAMG:  Solving for p, Initial residual = 9.13266e-05, Final residual = 2.66613e-07, No Iterations 6
GAMG:  Solving for p, Initial residual = 2.04046e-05, Final residual = 8.77004e-08, No Iterations 4
time step continuity errors : sum local = 3.53878e-11, global = -1.00807e-12, cumulative = 7.54153e-08
GAMG:  Solving for p, Initial residual = 1.53596e-05, Final residual = 8.60892e-08, No Iterations 6
GAMG:  Solving for p, Initial residual = 4.20108e-06, Final residual = 4.8246e-09, No Iterations 5
time step continuity errors : sum local = 1.94694e-12, global = -3.77023e-14, cumulative = 7.54152e-08
ExecutionTime = 4.86 s  ClockTime = 6 s

Courant Number mean: 0.0350653 max: 0.727008
Time = 0.38

smoothSolver:  Solving for Ux, Initial residual = 0.0154531, Final residual = 7.58189e-09, No Iterations 40
smoothSolver:  Solving for Uy, Initial residual = 0.00635776, Final residual = 7.45044e-09, No Iterations 52
GAMG:  Solving for p, Initial residual = 0.000669404, Final residual = 4.89084e-06, No Iterations 6
GAMG:  Solving for p, Initial residual = 0.000148303, Final residual = 1.41887e-06, No Iterations 3
time step continuity errors : sum local = 5.37682e-10, global = 2.03642e-11, cumulative = 7.54356e-08
GAMG:  Solving for p, Initial residual = 9.23614e-05, Final residual = 2.4931e-07, No Iterations 6
GAMG:  Solving for p, Initial residual = 2.04639e-05, Final residual = 9.69756e-08, No Iterations 4
time step continuity errors : sum local = 3.68225e-11, global = -1.53207e-12, cumulative = 7.54341e-08
GAMG:  Solving for p, Initial residual = 1.5412e-05, Final residual = 8.48399e-08, No Iterations 6
GAMG:  Solving for p, Initial residual = 4.15971e-06, Final residual = 4.7856e-09, No Iterations 5
time step continuity errors : sum local = 1.81729e-12, global = -3.23857e-14, cumulative = 7.5434e-08
ExecutionTime = 4.95 s  ClockTime = 6 s

Courant Number mean: 0.035071 max: 0.728941
Time = 0.39

smoothSolver:  Solving for Ux, Initial residual = 0.0142612, Final residual = 7.34491e-09, No Iterations 40
smoothSolver:  Solving for Uy, Initial residual = 0.00603963, Final residual = 7.35557e-09, No Iterations 52
GAMG:  Solving for p, Initial residual = 0.00066631, Final residual = 4.8363e-06, No Iterations 6
GAMG:  Solving for p, Initial residual = 0.000146708, Final residual = 1.40175e-06, No Iterations 3
time step continuity errors : sum local = 5.00222e-10, global = 1.90384e-11, cumulative = 7.54531e-08
GAMG:  Solving for p, Initial residual = 9.34892e-05, Final residual = 2.364e-07, No Iterations 6
GAMG:  Solving for p, Initial residual = 2.0575e-05, Final residual = 9.90128e-08, No Iterations 4
time step continuity errors : sum local = 3.54027e-11, global = -1.53979e-12, cumulative = 7.54515e-08
GAMG:  Solving for p, Initial residual = 1.54868e-05, Final residual = 8.40031e-08, No Iterations 6
GAMG:  Solving for p, Initial residual = 4.12163e-06, Final residual = 4.73557e-09, No Iterations 5
time step continuity errors : sum local = 1.69338e-12, global = -2.96116e-14, cumulative = 7.54515e-08
ExecutionTime = 5.05 s  ClockTime = 6 s

Courant Number mean: 0.035076 max: 0.730709
Time = 0.4

smoothSolver:  Solving for Ux, Initial residual = 0.0131854, Final residual = 7.11549e-09, No Iterations 40
smoothSolver:  Solving for Uy, Initial residual = 0.00574074, Final residual = 7.25477e-09, No Iterations 52
GAMG:  Solving for p, Initial residual = 0.000663729, Final residual = 4.7855e-06, No Iterations 6
GAMG:  Solving for p, Initial residual = 0.000145249, Final residual = 1.38587e-06, No Iterations 3
time step continuity errors : sum local = 4.66022e-10, global = 1.78161e-11, cumulative = 7.54693e-08
GAMG:  Solving for p, Initial residual = 9.47133e-05, Final residual = 2.33229e-07, No Iterations 6
GAMG:  Solving for p, Initial residual = 2.07247e-05, Final residual = 1.00942e-07, No Iterations 4
time step continuity errors : sum local = 3.40091e-11, global = -1.75997e-12, cumulative = 7.54676e-08
GAMG:  Solving for p, Initial residual = 1.55901e-05, Final residual = 8.31041e-08, No Iterations 6
GAMG:  Solving for p, Initial residual = 4.08755e-06, Final residual = 4.6955e-09, No Iterations 5
time step continuity errors : sum local = 1.58212e-12, global = -2.65869e-14, cumulative = 7.54675e-08
ExecutionTime = 5.14 s  ClockTime = 6 s

Courant Number mean: 0.0350802 max: 0.732328
Time = 0.41

smoothSolver:  Solving for Ux, Initial residual = 0.0122113, Final residual = 9.73146e-09, No Iterations 38
smoothSolver:  Solving for Uy, Initial residual = 0.00546207, Final residual = 7.14893e-09, No Iterations 52
GAMG:  Solving for p, Initial residual = 0.00066189, Final residual = 4.73826e-06, No Iterations 6
GAMG:  Solving for p, Initial residual = 0.000143945, Final residual = 1.37115e-06, No Iterations 3
time step continuity errors : sum local = 4.34736e-10, global = 1.66864e-11, cumulative = 7.54842e-08
GAMG:  Solving for p, Initial residual = 9.60068e-05, Final residual = 2.65409e-07, No Iterations 6
GAMG:  Solving for p, Initial residual = 2.09276e-05, Final residual = 1.02e-07, No Iterations 4
time step continuity errors : sum local = 3.24016e-11, global = -2.04896e-12, cumulative = 7.54822e-08
GAMG:  Solving for p, Initial residual = 1.57039e-05, Final residual = 8.22202e-08, No Iterations 6
GAMG:  Solving for p, Initial residual = 4.06237e-06, Final residual = 4.67458e-09, No Iterations 5
time step continuity errors : sum local = 1.48507e-12, global = -2.33971e-14, cumulative = 7.54822e-08
ExecutionTime = 5.23 s  ClockTime = 6 s

Courant Number mean: 0.0350838 max: 0.733813
Time = 0.42

smoothSolver:  Solving for Ux, Initial residual = 0.0113269, Final residual = 9.43537e-09, No Iterations 38
smoothSolver:  Solving for Uy, Initial residual = 0.00520336, Final residual = 9.90158e-09, No Iterations 50
GAMG:  Solving for p, Initial residual = 0.000660423, Final residual = 4.69413e-06, No Iterations 6
GAMG:  Solving for p, Initial residual = 0.000142723, Final residual = 1.35732e-06, No Iterations 3
time step continuity errors : sum local = 4.06006e-10, global = 1.5642e-11, cumulative = 7.54978e-08
GAMG:  Solving for p, Initial residual = 9.73961e-05, Final residual = 2.66898e-07, No Iterations 6
GAMG:  Solving for p, Initial residual = 2.11223e-05, Final residual = 1.03003e-07, No Iterations 4
time step continuity errors : sum local = 3.08685e-11, global = -1.88336e-12, cumulative = 7.54959e-08
GAMG:  Solving for p, Initial residual = 1.58478e-05, Final residual = 8.16577e-08, No Iterations 6
GAMG:  Solving for p, Initial residual = 4.03598e-06, Final residual = 4.63448e-09, No Iterations 5
time step continuity errors : sum local = 1.389e-12, global = -2.17675e-14, cumulative = 7.54959e-08
ExecutionTime = 5.33 s  ClockTime = 6 s

Courant Number mean: 0.0350867 max: 0.735175
Time = 0.43

smoothSolver:  Solving for Ux, Initial residual = 0.010522, Final residual = 9.14847e-09, No Iterations 38
smoothSolver:  Solving for Uy, Initial residual = 0.00497174, Final residual = 9.74329e-09, No Iterations 50
GAMG:  Solving for p, Initial residual = 0.000659252, Final residual = 4.65303e-06, No Iterations 6
GAMG:  Solving for p, Initial residual = 0.000141659, Final residual = 1.34471e-06, No Iterations 3
time step continuity errors : sum local = 3.79687e-10, global = 1.46765e-11, cumulative = 7.55106e-08
GAMG:  Solving for p, Initial residual = 9.88816e-05, Final residual = 9.74258e-07, No Iterations 5
GAMG:  Solving for p, Initial residual = 2.18441e-05, Final residual = 7.78773e-08, No Iterations 4
time step continuity errors : sum local = 2.20297e-11, global = -2.32179e-13, cumulative = 7.55103e-08
GAMG:  Solving for p, Initial residual = 1.60039e-05, Final residual = 8.26152e-08, No Iterations 6
GAMG:  Solving for p, Initial residual = 4.00374e-06, Final residual = 4.51694e-09, No Iterations 5
time step continuity errors : sum local = 1.27785e-12, global = -2.65708e-14, cumulative = 7.55103e-08
ExecutionTime = 5.42 s  ClockTime = 6 s

Courant Number mean: 0.0350891 max: 0.736426
Time = 0.44

smoothSolver:  Solving for Ux, Initial residual = 0.00978755, Final residual = 8.87122e-09, No Iterations 38
smoothSolver:  Solving for Uy, Initial residual = 0.00476104, Final residual = 9.58112e-09, No Iterations 50
GAMG:  Solving for p, Initial residual = 0.000658281, Final residual = 4.61464e-06, No Iterations 6
GAMG:  Solving for p, Initial residual = 0.000140695, Final residual = 1.33289e-06, No Iterations 3
time step continuity errors : sum local = 3.55441e-10, global = 1.37811e-11, cumulative = 7.55241e-08
GAMG:  Solving for p, Initial residual = 0.000100421, Final residual = 9.47497e-07, No Iterations 5
GAMG:  Solving for p, Initial residual = 2.20617e-05, Final residual = 7.88763e-08, No Iterations 4
time step continuity errors : sum local = 2.10721e-11, global = -2.78381e-13, cumulative = 7.55238e-08
GAMG:  Solving for p, Initial residual = 1.61942e-05, Final residual = 8.21057e-08, No Iterations 6
GAMG:  Solving for p, Initial residual = 3.9773e-06, Final residual = 4.47613e-09, No Iterations 5
time step continuity errors : sum local = 1.19592e-12, global = -2.49033e-14, cumulative = 7.55238e-08
ExecutionTime = 5.51 s  ClockTime = 6 s

Courant Number mean: 0.035091 max: 0.737576
Time = 0.45

smoothSolver:  Solving for Ux, Initial residual = 0.009116, Final residual = 8.60323e-09, No Iterations 38
smoothSolver:  Solving for Uy, Initial residual = 0.00456467, Final residual = 9.41546e-09, No Iterations 50
GAMG:  Solving for p, Initial residual = 0.000657552, Final residual = 4.57894e-06, No Iterations 6
GAMG:  Solving for p, Initial residual = 0.000139846, Final residual = 1.322e-06, No Iterations 3
time step continuity errors : sum local = 3.33114e-10, global = 1.29507e-11, cumulative = 7.55367e-08
GAMG:  Solving for p, Initial residual = 0.00010203, Final residual = 9.26014e-07, No Iterations 5
GAMG:  Solving for p, Initial residual = 2.23053e-05, Final residual = 8.20064e-08, No Iterations 4
time step continuity errors : sum local = 2.07008e-11, global = -2.82423e-13, cumulative = 7.55365e-08
GAMG:  Solving for p, Initial residual = 1.64027e-05, Final residual = 8.16331e-08, No Iterations 6
GAMG:  Solving for p, Initial residual = 3.95247e-06, Final residual = 4.43787e-09, No Iterations 5
time step continuity errors : sum local = 1.12034e-12, global = -2.33393e-14, cumulative = 7.55364e-08
ExecutionTime = 5.6 s  ClockTime = 7 s

Courant Number mean: 0.0350924 max: 0.738632
Time = 0.46

smoothSolver:  Solving for Ux, Initial residual = 0.00850065, Final residual = 8.34446e-09, No Iterations 38
smoothSolver:  Solving for Uy, Initial residual = 0.0043813, Final residual = 9.24732e-09, No Iterations 50
GAMG:  Solving for p, Initial residual = 0.000657106, Final residual = 4.54542e-06, No Iterations 6
GAMG:  Solving for p, Initial residual = 0.000139077, Final residual = 1.31191e-06, No Iterations 3
time step continuity errors : sum local = 3.12505e-10, global = 1.21799e-11, cumulative = 7.55486e-08
GAMG:  Solving for p, Initial residual = 0.000103697, Final residual = 9.15722e-07, No Iterations 5
GAMG:  Solving for p, Initial residual = 2.25743e-05, Final residual = 8.95902e-08, No Iterations 4
time step continuity errors : sum local = 2.13788e-11, global = -3.27147e-13, cumulative = 7.55483e-08
GAMG:  Solving for p, Initial residual = 1.66278e-05, Final residual = 8.10701e-08, No Iterations 6
GAMG:  Solving for p, Initial residual = 3.92841e-06, Final residual = 4.40429e-09, No Iterations 5
time step continuity errors : sum local = 1.05108e-12, global = -2.14486e-14, cumulative = 7.55483e-08
ExecutionTime = 5.69 s  ClockTime = 7 s

Courant Number mean: 0.0350933 max: 0.739605
Time = 0.47

smoothSolver:  Solving for Ux, Initial residual = 0.0079357, Final residual = 8.09468e-09, No Iterations 38
smoothSolver:  Solving for Uy, Initial residual = 0.00420943, Final residual = 9.0774e-09, No Iterations 50
GAMG:  Solving for p, Initial residual = 0.000657063, Final residual = 4.51382e-06, No Iterations 6
GAMG:  Solving for p, Initial residual = 0.000138401, Final residual = 1.30259e-06, No Iterations 3
time step continuity errors : sum local = 2.93462e-10, global = 1.14639e-11, cumulative = 7.55597e-08
GAMG:  Solving for p, Initial residual = 0.000105423, Final residual = 9.16198e-07, No Iterations 5
GAMG:  Solving for p, Initial residual = 2.28688e-05, Final residual = 1.05601e-07, No Iterations 4
time step continuity errors : sum local = 2.38325e-11, global = -5.73563e-13, cumulative = 7.55592e-08
GAMG:  Solving for p, Initial residual = 1.6869e-05, Final residual = 8.01575e-08, No Iterations 6
GAMG:  Solving for p, Initial residual = 3.90572e-06, Final residual = 4.38542e-09, No Iterations 5
time step continuity errors : sum local = 9.89804e-13, global = -1.84515e-14, cumulative = 7.55591e-08
ExecutionTime = 5.78 s  ClockTime = 7 s

Courant Number mean: 0.0350938 max: 0.7405
Time = 0.48

smoothSolver:  Solving for Ux, Initial residual = 0.00741611, Final residual = 7.85363e-09, No Iterations 38
smoothSolver:  Solving for Uy, Initial residual = 0.00404849, Final residual = 8.90633e-09, No Iterations 50
GAMG:  Solving for p, Initial residual = 0.000657314, Final residual = 4.48421e-06, No Iterations 6
GAMG:  Solving for p, Initial residual = 0.000137792, Final residual = 1.29401e-06, No Iterations 3
time step continuity errors : sum local = 2.75836e-10, global = 1.07988e-11, cumulative = 7.55699e-08
GAMG:  Solving for p, Initial residual = 0.000107201, Final residual = 9.22334e-07, No Iterations 5
GAMG:  Solving for p, Initial residual = 2.31791e-05, Final residual = 1.22168e-07, No Iterations 4
time step continuity errors : sum local = 2.60868e-11, global = -1.18309e-12, cumulative = 7.55688e-08
GAMG:  Solving for p, Initial residual = 1.71207e-05, Final residual = 7.8764e-08, No Iterations 6
GAMG:  Solving for p, Initial residual = 3.88881e-06, Final residual = 4.39666e-09, No Iterations 5
time step continuity errors : sum local = 9.38904e-13, global = -1.47607e-14, cumulative = 7.55687e-08
ExecutionTime = 5.87 s  ClockTime = 7 s

Courant Number mean: 0.0350939 max: 0.741324
Time = 0.49

smoothSolver:  Solving for Ux, Initial residual = 0.00693739, Final residual = 7.621e-09, No Iterations 38
smoothSolver:  Solving for Uy, Initial residual = 0.00389855, Final residual = 8.73459e-09, No Iterations 50
GAMG:  Solving for p, Initial residual = 0.000658578, Final residual = 4.45612e-06, No Iterations 6
GAMG:  Solving for p, Initial residual = 0.000137253, Final residual = 1.28614e-06, No Iterations 3
time step continuity errors : sum local = 2.59509e-10, global = 1.0181e-11, cumulative = 7.55789e-08
GAMG:  Solving for p, Initial residual = 0.000109051, Final residual = 9.35106e-07, No Iterations 5
GAMG:  Solving for p, Initial residual = 2.3505e-05, Final residual = 1.26279e-07, No Iterations 4
time step continuity errors : sum local = 2.55232e-11, global = -1.66872e-12, cumulative = 7.55773e-08
GAMG:  Solving for p, Initial residual = 1.73892e-05, Final residual = 7.77201e-08, No Iterations 6
GAMG:  Solving for p, Initial residual = 3.87947e-06, Final residual = 4.41123e-09, No Iterations 5
time step continuity errors : sum local = 8.91656e-13, global = -1.27366e-14, cumulative = 7.55772e-08
ExecutionTime = 5.96 s  ClockTime = 7 s

Courant Number mean: 0.0350936 max: 0.742083
Time = 0.5

smoothSolver:  Solving for Ux, Initial residual = 0.00649562, Final residual = 7.39652e-09, No Iterations 38
smoothSolver:  Solving for Uy, Initial residual = 0.00375756, Final residual = 8.56268e-09, No Iterations 50
GAMG:  Solving for p, Initial residual = 0.000662527, Final residual = 4.42957e-06, No Iterations 6
GAMG:  Solving for p, Initial residual = 0.000136785, Final residual = 1.27901e-06, No Iterations 3
time step continuity errors : sum local = 2.44374e-10, global = 9.60765e-12, cumulative = 7.55868e-08
GAMG:  Solving for p, Initial residual = 0.000111014, Final residual = 9.72471e-07, No Iterations 5
GAMG:  Solving for p, Initial residual = 2.38666e-05, Final residual = 1.29419e-07, No Iterations 4
time step continuity errors : sum local = 2.47694e-11, global = -1.68321e-12, cumulative = 7.55852e-08
GAMG:  Solving for p, Initial residual = 1.76828e-05, Final residual = 7.7255e-08, No Iterations 6
GAMG:  Solving for p, Initial residual = 3.86849e-06, Final residual = 4.39692e-09, No Iterations 5
time step continuity errors : sum local = 8.41582e-13, global = -1.18585e-14, cumulative = 7.55852e-08
ExecutionTime = 6.06 s  ClockTime = 7 s

Courant Number mean: 0.0350931 max: 0.742783
Time = 0.51

smoothSolver:  Solving for Ux, Initial residual = 0.00608735, Final residual = 7.17993e-09, No Iterations 38
smoothSolver:  Solving for Uy, Initial residual = 0.00362564, Final residual = 8.39118e-09, No Iterations 50
GAMG:  Solving for p, Initial residual = 0.000667174, Final residual = 4.4042e-06, No Iterations 6
GAMG:  Solving for p, Initial residual = 0.000136369, Final residual = 1.27257e-06, No Iterations 3
time step continuity errors : sum local = 2.30327e-10, global = 9.07632e-12, cumulative = 7.55942e-08
GAMG:  Solving for p, Initial residual = 0.000113055, Final residual = 1.0197e-06, No Iterations 5
GAMG:  Solving for p, Initial residual = 2.42501e-05, Final residual = 1.37015e-07, No Iterations 4
time step continuity errors : sum local = 2.48403e-11, global = -1.53438e-12, cumulative = 7.55927e-08
GAMG:  Solving for p, Initial residual = 1.79894e-05, Final residual = 7.68859e-08, No Iterations 6
GAMG:  Solving for p, Initial residual = 3.85091e-06, Final residual = 4.36483e-09, No Iterations 5
time step continuity errors : sum local = 7.91387e-13, global = -1.12351e-14, cumulative = 7.55927e-08
ExecutionTime = 6.15 s  ClockTime = 7 s

Courant Number mean: 0.0350922 max: 0.743427
Time = 0.52

smoothSolver:  Solving for Ux, Initial residual = 0.00570952, Final residual = 9.92612e-09, No Iterations 36
smoothSolver:  Solving for Uy, Initial residual = 0.00350262, Final residual = 8.22052e-09, No Iterations 50
GAMG:  Solving for p, Initial residual = 0.000671972, Final residual = 4.37962e-06, No Iterations 6
GAMG:  Solving for p, Initial residual = 0.000136013, Final residual = 1.26681e-06, No Iterations 3
time step continuity errors : sum local = 2.17276e-10, global = 8.58023e-12, cumulative = 7.56013e-08
GAMG:  Solving for p, Initial residual = 0.0001151, Final residual = 1.04957e-06, No Iterations 5
GAMG:  Solving for p, Initial residual = 2.46147e-05, Final residual = 1.4273e-07, No Iterations 4
time step continuity errors : sum local = 2.45206e-11, global = -8.64808e-13, cumulative = 7.56004e-08
GAMG:  Solving for p, Initial residual = 1.82675e-05, Final residual = 7.72879e-08, No Iterations 6
GAMG:  Solving for p, Initial residual = 3.83592e-06, Final residual = 4.30552e-09, No Iterations 5
time step continuity errors : sum local = 7.39731e-13, global = -1.12359e-14, cumulative = 7.56004e-08
ExecutionTime = 6.24 s  ClockTime = 7 s

Courant Number mean: 0.035091 max: 0.74402
Time = 0.53

smoothSolver:  Solving for Ux, Initial residual = 0.00535936, Final residual = 9.64376e-09, No Iterations 36
smoothSolver:  Solving for Uy, Initial residual = 0.00338757, Final residual = 8.0518e-09, No Iterations 50
GAMG:  Solving for p, Initial residual = 0.000676982, Final residual = 4.35601e-06, No Iterations 6
GAMG:  Solving for p, Initial residual = 0.000135625, Final residual = 1.26127e-06, No Iterations 3
time step continuity errors : sum local = 2.05066e-10, global = 8.1268e-12, cumulative = 7.56085e-08
GAMG:  Solving for p, Initial residual = 0.000117257, Final residual = 1.06293e-06, No Iterations 5
GAMG:  Solving for p, Initial residual = 2.49446e-05, Final residual = 1.40035e-07, No Iterations 4
time step continuity errors : sum local = 2.28049e-11, global = 6.26116e-14, cumulative = 7.56086e-08
GAMG:  Solving for p, Initial residual = 1.85619e-05, Final residual = 7.76855e-08, No Iterations 6
GAMG:  Solving for p, Initial residual = 3.81958e-06, Final residual = 4.24156e-09, No Iterations 5
time step continuity errors : sum local = 6.90799e-13, global = -1.1676e-14, cumulative = 7.56086e-08
ExecutionTime = 6.33 s  ClockTime = 7 s

Courant Number mean: 0.0350895 max: 0.744567
Time = 0.54

smoothSolver:  Solving for Ux, Initial residual = 0.00503447, Final residual = 9.37005e-09, No Iterations 36
smoothSolver:  Solving for Uy, Initial residual = 0.00328004, Final residual = 7.88367e-09, No Iterations 50
GAMG:  Solving for p, Initial residual = 0.000682139, Final residual = 4.3332e-06, No Iterations 6
GAMG:  Solving for p, Initial residual = 0.000135372, Final residual = 1.25718e-06, No Iterations 3
time step continuity errors : sum local = 1.93828e-10, global = 7.71387e-12, cumulative = 7.56163e-08
GAMG:  Solving for p, Initial residual = 0.000119505, Final residual = 1.06424e-06, No Iterations 5
GAMG:  Solving for p, Initial residual = 2.53028e-05, Final residual = 1.31146e-07, No Iterations 4
time step continuity errors : sum local = 2.02522e-11, global = 6.56103e-13, cumulative = 7.56169e-08
GAMG:  Solving for p, Initial residual = 1.88831e-05, Final residual = 7.80163e-08, No Iterations 6
GAMG:  Solving for p, Initial residual = 3.81179e-06, Final residual = 4.1994e-09, No Iterations 5
time step continuity errors : sum local = 6.48542e-13, global = -1.19697e-14, cumulative = 7.56169e-08
ExecutionTime = 6.42 s  ClockTime = 7 s

Courant Number mean: 0.0350878 max: 0.74507
Time = 0.55

smoothSolver:  Solving for Ux, Initial residual = 0.00473266, Final residual = 9.10554e-09, No Iterations 36
smoothSolver:  Solving for Uy, Initial residual = 0.00317948, Final residual = 7.71719e-09, No Iterations 50
GAMG:  Solving for p, Initial residual = 0.000687516, Final residual = 6.81339e-06, No Iterations 5
GAMG:  Solving for p, Initial residual = 0.000136468, Final residual = 1.25327e-06, No Iterations 3
time step continuity errors : sum local = 1.8336e-10, global = 1.73807e-11, cumulative = 7.56343e-08
GAMG:  Solving for p, Initial residual = 0.000122598, Final residual = 1.04055e-06, No Iterations 5
GAMG:  Solving for p, Initial residual = 2.55665e-05, Final residual = 1.22643e-07, No Iterations 4
time step continuity errors : sum local = 1.79647e-11, global = 6.53314e-13, cumulative = 7.5635e-08
GAMG:  Solving for p, Initial residual = 1.91986e-05, Final residual = 7.69073e-08, No Iterations 6
GAMG:  Solving for p, Initial residual = 3.80797e-06, Final residual = 4.20141e-09, No Iterations 5
time step continuity errors : sum local = 6.15476e-13, global = -1.0312e-14, cumulative = 7.56349e-08
ExecutionTime = 6.51 s  ClockTime = 7 s

Courant Number mean: 0.0350859 max: 0.745532
Time = 0.56

smoothSolver:  Solving for Ux, Initial residual = 0.00445195, Final residual = 8.84971e-09, No Iterations 36
smoothSolver:  Solving for Uy, Initial residual = 0.00308823, Final residual = 7.55242e-09, No Iterations 50
GAMG:  Solving for p, Initial residual = 0.000693163, Final residual = 6.76707e-06, No Iterations 5
GAMG:  Solving for p, Initial residual = 0.000136258, Final residual = 1.24128e-06, No Iterations 3
time step continuity errors : sum local = 1.72322e-10, global = 1.66077e-11, cumulative = 7.56516e-08
GAMG:  Solving for p, Initial residual = 0.000124956, Final residual = 1.01974e-06, No Iterations 5
GAMG:  Solving for p, Initial residual = 2.59031e-05, Final residual = 1.21583e-07, No Iterations 4
time step continuity errors : sum local = 1.68986e-11, global = 4.42e-13, cumulative = 7.5652e-08
GAMG:  Solving for p, Initial residual = 1.95399e-05, Final residual = 7.67475e-08, No Iterations 6
GAMG:  Solving for p, Initial residual = 3.7997e-06, Final residual = 4.17586e-09, No Iterations 5
time step continuity errors : sum local = 5.80444e-13, global = -9.88814e-15, cumulative = 7.5652e-08
ExecutionTime = 6.6 s  ClockTime = 8 s

Courant Number mean: 0.0350838 max: 0.745957
Time = 0.57

smoothSolver:  Solving for Ux, Initial residual = 0.00419062, Final residual = 8.60238e-09, No Iterations 36
smoothSolver:  Solving for Uy, Initial residual = 0.00300438, Final residual = 7.38964e-09, No Iterations 50
GAMG:  Solving for p, Initial residual = 0.000699069, Final residual = 6.71998e-06, No Iterations 5
GAMG:  Solving for p, Initial residual = 0.000136081, Final residual = 1.22982e-06, No Iterations 3
time step continuity errors : sum local = 1.62051e-10, global = 1.58969e-11, cumulative = 7.56679e-08
GAMG:  Solving for p, Initial residual = 0.000127374, Final residual = 9.96579e-07, No Iterations 5
GAMG:  Solving for p, Initial residual = 2.62447e-05, Final residual = 1.24493e-07, No Iterations 4
time step continuity errors : sum local = 1.64229e-11, global = 2.23319e-13, cumulative = 7.56681e-08
GAMG:  Solving for p, Initial residual = 1.98908e-05, Final residual = 7.64795e-08, No Iterations 6
GAMG:  Solving for p, Initial residual = 3.79262e-06, Final residual = 4.15529e-09, No Iterations 5
time step continuity errors : sum local = 5.48206e-13, global = -9.34806e-15, cumulative = 7.56681e-08
ExecutionTime = 6.69 s  ClockTime = 8 s

Courant Number mean: 0.0350814 max: 0.746348
Time = 0.58

smoothSolver:  Solving for Ux, Initial residual = 0.00394709, Final residual = 8.36329e-09, No Iterations 36
smoothSolver:  Solving for Uy, Initial residual = 0.00292653, Final residual = 7.22891e-09, No Iterations 50
GAMG:  Solving for p, Initial residual = 0.000705201, Final residual = 6.67269e-06, No Iterations 5
GAMG:  Solving for p, Initial residual = 0.000135935, Final residual = 1.21903e-06, No Iterations 3
time step continuity errors : sum local = 1.52506e-10, global = 1.52493e-11, cumulative = 7.56833e-08
GAMG:  Solving for p, Initial residual = 0.000129858, Final residual = 9.75139e-07, No Iterations 5
GAMG:  Solving for p, Initial residual = 2.65974e-05, Final residual = 1.30317e-07, No Iterations 4
time step continuity errors : sum local = 1.63214e-11, global = 4.07596e-14, cumulative = 7.56834e-08
GAMG:  Solving for p, Initial residual = 2.02523e-05, Final residual = 7.61284e-08, No Iterations 6
GAMG:  Solving for p, Initial residual = 3.78687e-06, Final residual = 4.14024e-09, No Iterations 5
time step continuity errors : sum local = 5.18582e-13, global = -8.75359e-15, cumulative = 7.56834e-08
ExecutionTime = 6.78 s  ClockTime = 8 s

Courant Number mean: 0.0350789 max: 0.746705
Time = 0.59

smoothSolver:  Solving for Ux, Initial residual = 0.00371993, Final residual = 8.13215e-09, No Iterations 36
smoothSolver:  Solving for Uy, Initial residual = 0.00285375, Final residual = 9.98709e-09, No Iterations 48
GAMG:  Solving for p, Initial residual = 0.000711503, Final residual = 6.62835e-06, No Iterations 5
GAMG:  Solving for p, Initial residual = 0.000135837, Final residual = 1.20918e-06, No Iterations 3
time step continuity errors : sum local = 1.43661e-10, global = 1.46738e-11, cumulative = 7.56981e-08
GAMG:  Solving for p, Initial residual = 0.000132371, Final residual = 9.5854e-07, No Iterations 5
GAMG:  Solving for p, Initial residual = 2.69705e-05, Final residual = 1.37852e-07, No Iterations 4
time step continuity errors : sum local = 1.63959e-11, global = -1.04596e-13, cumulative = 7.56979e-08
GAMG:  Solving for p, Initial residual = 2.06284e-05, Final residual = 2.0579e-07, No Iterations 5
GAMG:  Solving for p, Initial residual = 3.85561e-06, Final residual = 3.76993e-09, No Iterations 5
time step continuity errors : sum local = 4.48426e-13, global = -2.87663e-14, cumulative = 7.56979e-08
ExecutionTime = 6.86 s  ClockTime = 8 s

Courant Number mean: 0.0350763 max: 0.747033
Time = 0.6

smoothSolver:  Solving for Ux, Initial residual = 0.00350783, Final residual = 7.90871e-09, No Iterations 36
smoothSolver:  Solving for Uy, Initial residual = 0.00278525, Final residual = 9.76777e-09, No Iterations 48
GAMG:  Solving for p, Initial residual = 0.00071798, Final residual = 6.59862e-06, No Iterations 5
GAMG:  Solving for p, Initial residual = 0.000135779, Final residual = 1.20097e-06, No Iterations 3
time step continuity errors : sum local = 1.35541e-10, global = 1.41573e-11, cumulative = 7.57121e-08
GAMG:  Solving for p, Initial residual = 0.000134942, Final residual = 9.49191e-07, No Iterations 5
GAMG:  Solving for p, Initial residual = 2.73534e-05, Final residual = 1.4539e-07, No Iterations 4
time step continuity errors : sum local = 1.64262e-11, global = -2.09335e-13, cumulative = 7.57119e-08
GAMG:  Solving for p, Initial residual = 2.1009e-05, Final residual = 2.0572e-07, No Iterations 5
GAMG:  Solving for p, Initial residual = 3.85218e-06, Final residual = 3.78129e-09, No Iterations 5
time step continuity errors : sum local = 4.27247e-13, global = -2.71465e-14, cumulative = 7.57118e-08
ExecutionTime = 6.95 s  ClockTime = 8 s

Courant Number mean: 0.0350735 max: 0.747332
Time = 0.61

smoothSolver:  Solving for Ux, Initial residual = 0.00330964, Final residual = 7.69265e-09, No Iterations 36
smoothSolver:  Solving for Uy, Initial residual = 0.00272297, Final residual = 9.55176e-09, No Iterations 48
GAMG:  Solving for p, Initial residual = 0.00072467, Final residual = 6.59213e-06, No Iterations 5
GAMG:  Solving for p, Initial residual = 0.000135785, Final residual = 1.19346e-06, No Iterations 3
time step continuity errors : sum local = 1.27983e-10, global = 1.37534e-11, cumulative = 7.57256e-08
GAMG:  Solving for p, Initial residual = 0.000137568, Final residual = 9.4768e-07, No Iterations 5
GAMG:  Solving for p, Initial residual = 2.77579e-05, Final residual = 1.51994e-07, No Iterations 4
time step continuity errors : sum local = 1.63162e-11, global = -2.73333e-13, cumulative = 7.57253e-08
GAMG:  Solving for p, Initial residual = 2.13987e-05, Final residual = 2.05727e-07, No Iterations 5
GAMG:  Solving for p, Initial residual = 3.84976e-06, Final residual = 3.79398e-09, No Iterations 5
time step continuity errors : sum local = 4.07309e-13, global = -2.56604e-14, cumulative = 7.57253e-08
ExecutionTime = 7.04 s  ClockTime = 8 s

Courant Number mean: 0.0350707 max: 0.747604
Time = 0.62

smoothSolver:  Solving for Ux, Initial residual = 0.00312428, Final residual = 7.4837e-09, No Iterations 36
smoothSolver:  Solving for Uy, Initial residual = 0.00266682, Final residual = 9.33918e-09, No Iterations 48
GAMG:  Solving for p, Initial residual = 0.00073163, Final residual = 6.61596e-06, No Iterations 5
GAMG:  Solving for p, Initial residual = 0.000135861, Final residual = 1.1886e-06, No Iterations 3
time step continuity errors : sum local = 1.21141e-10, global = 1.34694e-11, cumulative = 7.57388e-08
GAMG:  Solving for p, Initial residual = 0.000140245, Final residual = 9.55985e-07, No Iterations 5
GAMG:  Solving for p, Initial residual = 2.81849e-05, Final residual = 1.57119e-07, No Iterations 4
time step continuity errors : sum local = 1.60295e-11, global = -2.95339e-13, cumulative = 7.57385e-08
GAMG:  Solving for p, Initial residual = 2.17968e-05, Final residual = 2.05766e-07, No Iterations 5
GAMG:  Solving for p, Initial residual = 3.84819e-06, Final residual = 3.80663e-09, No Iterations 5
time step continuity errors : sum local = 3.88391e-13, global = -2.43041e-14, cumulative = 7.57384e-08
ExecutionTime = 7.14 s  ClockTime = 8 s

Courant Number mean: 0.0350677 max: 0.747852
Time = 0.63

smoothSolver:  Solving for Ux, Initial residual = 0.00295082, Final residual = 7.28158e-09, No Iterations 36
smoothSolver:  Solving for Uy, Initial residual = 0.00261459, Final residual = 9.12997e-09, No Iterations 48
GAMG:  Solving for p, Initial residual = 0.000738809, Final residual = 6.67663e-06, No Iterations 5
GAMG:  Solving for p, Initial residual = 0.000136006, Final residual = 1.18918e-06, No Iterations 3
time step continuity errors : sum local = 1.15217e-10, global = 1.33326e-11, cumulative = 7.57518e-08
GAMG:  Solving for p, Initial residual = 0.000142975, Final residual = 9.75251e-07, No Iterations 5
GAMG:  Solving for p, Initial residual = 2.86377e-05, Final residual = 1.60994e-07, No Iterations 4
time step continuity errors : sum local = 1.56138e-11, global = -2.84781e-13, cumulative = 7.57515e-08
GAMG:  Solving for p, Initial residual = 2.22009e-05, Final residual = 2.05847e-07, No Iterations 5
GAMG:  Solving for p, Initial residual = 3.84729e-06, Final residual = 3.81923e-09, No Iterations 5
time step continuity errors : sum local = 3.70432e-13, global = -2.30619e-14, cumulative = 7.57515e-08
ExecutionTime = 7.22 s  ClockTime = 8 s

Courant Number mean: 0.0350646 max: 0.748076
Time = 0.64

smoothSolver:  Solving for Ux, Initial residual = 0.00278838, Final residual = 7.08606e-09, No Iterations 36
smoothSolver:  Solving for Uy, Initial residual = 0.00256517, Final residual = 8.92436e-09, No Iterations 48
GAMG:  Solving for p, Initial residual = 0.00074624, Final residual = 6.78025e-06, No Iterations 5
[...]
GAMG:  Solving for p, Initial residual = 0.000280113, Final residual = 1.45524e-06, No Iterations 6
GAMG:  Solving for p, Initial residual = 4.02459e-05, Final residual = 1.95839e-07, No Iterations 4
time step continuity errors : sum local = 1.22645e-12, global = -5.95001e-14, cumulative = 7.59061e-08
GAMG:  Solving for p, Initial residual = 6.79778e-05, Final residual = 6.68236e-07, No Iterations 6
GAMG:  Solving for p, Initial residual = 1.52538e-05, Final residual = 5.16846e-08, No Iterations 4
time step continuity errors : sum local = 3.23771e-13, global = 2.40086e-14, cumulative = 7.59061e-08
GAMG:  Solving for p, Initial residual = 1.17854e-05, Final residual = 8.04841e-08, No Iterations 5
GAMG:  Solving for p, Initial residual = 1.80149e-06, Final residual = 9.69731e-09, No Iterations 4
time step continuity errors : sum local = 6.07497e-14, global = 3.41519e-15, cumulative = 7.59061e-08
ExecutionTime = 36.78 s  ClockTime = 38 s

Courant Number mean: 0.0342645 max: 0.714057
Time = 3.98

smoothSolver:  Solving for Ux, Initial residual = 7.01829e-05, Final residual = 7.36897e-09, No Iterations 16
smoothSolver:  Solving for Uy, Initial residual = 0.00082174, Final residual = 9.84133e-09, No Iterations 24
GAMG:  Solving for p, Initial residual = 0.000278539, Final residual = 1.45149e-06, No Iterations 6
GAMG:  Solving for p, Initial residual = 4.00697e-05, Final residual = 1.95309e-07, No Iterations 4
time step continuity errors : sum local = 1.223e-12, global = -5.98228e-14, cumulative = 7.5906e-08
GAMG:  Solving for p, Initial residual = 6.75546e-05, Final residual = 6.64813e-07, No Iterations 6
GAMG:  Solving for p, Initial residual = 1.51816e-05, Final residual = 5.14634e-08, No Iterations 4
time step continuity errors : sum local = 3.22353e-13, global = 2.38794e-14, cumulative = 7.59061e-08
GAMG:  Solving for p, Initial residual = 1.17268e-05, Final residual = 8.01115e-08, No Iterations 5
GAMG:  Solving for p, Initial residual = 1.79363e-06, Final residual = 9.64367e-09, No Iterations 4
time step continuity errors : sum local = 6.04075e-14, global = 3.38647e-15, cumulative = 7.59061e-08
ExecutionTime = 36.86 s  ClockTime = 38 s

Courant Number mean: 0.0342635 max: 0.713992
Time = 3.99

smoothSolver:  Solving for Ux, Initial residual = 7.01172e-05, Final residual = 7.33001e-09, No Iterations 16
smoothSolver:  Solving for Uy, Initial residual = 0.000819874, Final residual = 9.76509e-09, No Iterations 24
GAMG:  Solving for p, Initial residual = 0.000276954, Final residual = 1.44669e-06, No Iterations 6
GAMG:  Solving for p, Initial residual = 3.98696e-05, Final residual = 1.94708e-07, No Iterations 4
time step continuity errors : sum local = 1.21912e-12, global = -6.02921e-14, cumulative = 7.5906e-08
GAMG:  Solving for p, Initial residual = 6.7118e-05, Final residual = 6.61011e-07, No Iterations 6
GAMG:  Solving for p, Initial residual = 1.51004e-05, Final residual = 5.12066e-08, No Iterations 4
time step continuity errors : sum local = 3.20712e-13, global = 2.37461e-14, cumulative = 7.5906e-08
GAMG:  Solving for p, Initial residual = 1.16615e-05, Final residual = 7.96391e-08, No Iterations 5
GAMG:  Solving for p, Initial residual = 1.78422e-06, Final residual = 9.56588e-09, No Iterations 4
time step continuity errors : sum local = 5.99141e-14, global = 3.32786e-15, cumulative = 7.5906e-08
ExecutionTime = 36.94 s  ClockTime = 39 s

Courant Number mean: 0.0342625 max: 0.713927
Time = 4

smoothSolver:  Solving for Ux, Initial residual = 7.00515e-05, Final residual = 7.29113e-09, No Iterations 16
smoothSolver:  Solving for Uy, Initial residual = 0.000818066, Final residual = 9.68856e-09, No Iterations 24
GAMG:  Solving for p, Initial residual = 0.000275384, Final residual = 1.44201e-06, No Iterations 6
GAMG:  Solving for p, Initial residual = 3.96747e-05, Final residual = 1.94119e-07, No Iterations 4
time step continuity errors : sum local = 1.21531e-12, global = -6.0706e-14, cumulative = 7.5906e-08
GAMG:  Solving for p, Initial residual = 6.66857e-05, Final residual = 6.57276e-07, No Iterations 6
GAMG:  Solving for p, Initial residual = 1.50209e-05, Final residual = 5.0954e-08, No Iterations 4
time step continuity errors : sum local = 3.19098e-13, global = 2.36171e-14, cumulative = 7.5906e-08
GAMG:  Solving for p, Initial residual = 1.15973e-05, Final residual = 7.91945e-08, No Iterations 5
GAMG:  Solving for p, Initial residual = 1.7752e-06, Final residual = 9.49458e-09, No Iterations 4
time step continuity errors : sum local = 5.94616e-14, global = 3.27812e-15, cumulative = 7.5906e-08
ExecutionTime = 37.02 s  ClockTime = 39 s

Courant Number mean: 0.0342615 max: 0.713863
Time = 4.01

smoothSolver:  Solving for Ux, Initial residual = 6.9986e-05, Final residual = 7.25239e-09, No Iterations 16
smoothSolver:  Solving for Uy, Initial residual = 0.000816335, Final residual = 9.61234e-09, No Iterations 24
GAMG:  Solving for p, Initial residual = 0.000273848, Final residual = 1.43716e-06, No Iterations 6
GAMG:  Solving for p, Initial residual = 3.94772e-05, Final residual = 1.93519e-07, No Iterations 4
time step continuity errors : sum local = 1.21143e-12, global = -6.1108e-14, cumulative = 7.59059e-08
GAMG:  Solving for p, Initial residual = 6.62542e-05, Final residual = 6.53522e-07, No Iterations 6
GAMG:  Solving for p, Initial residual = 1.49405e-05, Final residual = 5.06991e-08, No Iterations 4
time step continuity errors : sum local = 3.1747e-13, global = 2.34874e-14, cumulative = 7.5906e-08
GAMG:  Solving for p, Initial residual = 1.15326e-05, Final residual = 7.87416e-08, No Iterations 5
GAMG:  Solving for p, Initial residual = 1.76602e-06, Final residual = 9.42112e-09, No Iterations 4
time step continuity errors : sum local = 5.89956e-14, global = 3.22656e-15, cumulative = 7.5906e-08
ExecutionTime = 37.15 s  ClockTime = 39 s

Courant Number mean: 0.0342605 max: 0.713798
Time = 4.02

smoothSolver:  Solving for Ux, Initial residual = 6.99206e-05, Final residual = 7.21382e-09, No Iterations 16
smoothSolver:  Solving for Uy, Initial residual = 0.000814678, Final residual = 9.53644e-09, No Iterations 24
GAMG:  Solving for p, Initial residual = 0.000272309, Final residual = 1.43225e-06, No Iterations 6
GAMG:  Solving for p, Initial residual = 3.92796e-05, Final residual = 1.92915e-07, No Iterations 4
time step continuity errors : sum local = 1.20754e-12, global = -6.14877e-14, cumulative = 7.59059e-08
GAMG:  Solving for p, Initial residual = 6.58238e-05, Final residual = 6.49787e-07, No Iterations 6
GAMG:  Solving for p, Initial residual = 1.48601e-05, Final residual = 5.04449e-08, No Iterations 4
time step continuity errors : sum local = 3.15846e-13, global = 2.33587e-14, cumulative = 7.59059e-08
GAMG:  Solving for p, Initial residual = 1.14682e-05, Final residual = 7.82922e-08, No Iterations 5
GAMG:  Solving for p, Initial residual = 1.75687e-06, Final residual = 9.34842e-09, No Iterations 4
time step continuity errors : sum local = 5.85345e-14, global = 3.17642e-15, cumulative = 7.59059e-08
ExecutionTime = 37.23 s  ClockTime = 39 s

Courant Number mean: 0.0342596 max: 0.713735
Time = 4.03

smoothSolver:  Solving for Ux, Initial residual = 6.98554e-05, Final residual = 7.1754e-09, No Iterations 16
smoothSolver:  Solving for Uy, Initial residual = 0.000813125, Final residual = 9.4609e-09, No Iterations 24
GAMG:  Solving for p, Initial residual = 0.00027077, Final residual = 1.42725e-06, No Iterations 6
GAMG:  Solving for p, Initial residual = 3.90812e-05, Final residual = 1.92307e-07, No Iterations 4
time step continuity errors : sum local = 1.20361e-12, global = -6.1848e-14, cumulative = 7.59059e-08
GAMG:  Solving for p, Initial residual = 6.53942e-05, Final residual = 6.46067e-07, No Iterations 6
GAMG:  Solving for p, Initial residual = 1.47796e-05, Final residual = 5.01904e-08, No Iterations 4
time step continuity errors : sum local = 3.14222e-13, global = 2.32305e-14, cumulative = 7.59059e-08
GAMG:  Solving for p, Initial residual = 1.14038e-05, Final residual = 7.78427e-08, No Iterations 5
GAMG:  Solving for p, Initial residual = 1.74769e-06, Final residual = 9.27583e-09, No Iterations 4
time step continuity errors : sum local = 5.80742e-14, global = 3.12685e-15, cumulative = 7.59059e-08
ExecutionTime = 37.31 s  ClockTime = 39 s

Courant Number mean: 0.0342586 max: 0.713671
Time = 4.04

smoothSolver:  Solving for Ux, Initial residual = 6.97903e-05, Final residual = 7.13714e-09, No Iterations 16
smoothSolver:  Solving for Uy, Initial residual = 0.00081171, Final residual = 9.38577e-09, No Iterations 24
GAMG:  Solving for p, Initial residual = 0.000269274, Final residual = 1.42217e-06, No Iterations 6
GAMG:  Solving for p, Initial residual = 3.88821e-05, Final residual = 1.91695e-07, No Iterations 4
time step continuity errors : sum local = 1.19967e-12, global = -6.21886e-14, cumulative = 7.59058e-08
GAMG:  Solving for p, Initial residual = 6.49655e-05, Final residual = 6.42359e-07, No Iterations 6
GAMG:  Solving for p, Initial residual = 1.46992e-05, Final residual = 4.99371e-08, No Iterations 4
time step continuity errors : sum local = 3.12605e-13, global = 2.3103e-14, cumulative = 7.59059e-08
GAMG:  Solving for p, Initial residual = 1.13396e-05, Final residual = 7.73942e-08, No Iterations 5
GAMG:  Solving for p, Initial residual = 1.73851e-06, Final residual = 9.20344e-09, No Iterations 4
time step continuity errors : sum local = 5.76153e-14, global = 3.07817e-15, cumulative = 7.59059e-08
ExecutionTime = 37.46 s  ClockTime = 39 s

Courant Number mean: 0.0342576 max: 0.713608
Time = 4.05

smoothSolver:  Solving for Ux, Initial residual = 6.97253e-05, Final residual = 7.09905e-09, No Iterations 16
smoothSolver:  Solving for Uy, Initial residual = 0.000810374, Final residual = 9.31105e-09, No Iterations 24
GAMG:  Solving for p, Initial residual = 0.000267791, Final residual = 1.41702e-06, No Iterations 6
GAMG:  Solving for p, Initial residual = 3.86824e-05, Final residual = 1.91078e-07, No Iterations 4
time step continuity errors : sum local = 1.19569e-12, global = -6.25094e-14, cumulative = 7.59058e-08
GAMG:  Solving for p, Initial residual = 6.45387e-05, Final residual = 6.3867e-07, No Iterations 6
GAMG:  Solving for p, Initial residual = 1.46189e-05, Final residual = 4.96841e-08, No Iterations 4
time step continuity errors : sum local = 3.10992e-13, global = 2.29761e-14, cumulative = 7.59058e-08
GAMG:  Solving for p, Initial residual = 1.12755e-05, Final residual = 7.69464e-08, No Iterations 5
GAMG:  Solving for p, Initial residual = 1.72933e-06, Final residual = 9.13114e-09, No Iterations 4
time step continuity errors : sum local = 5.71571e-14, global = 3.03023e-15, cumulative = 7.59058e-08
ExecutionTime = 37.64 s  ClockTime = 39 s

Courant Number mean: 0.0342567 max: 0.713545
Time = 4.06

smoothSolver:  Solving for Ux, Initial residual = 6.96609e-05, Final residual = 7.0611e-09, No Iterations 16
smoothSolver:  Solving for Uy, Initial residual = 0.000809034, Final residual = 9.23676e-09, No Iterations 24
GAMG:  Solving for p, Initial residual = 0.000266318, Final residual = 1.41288e-06, No Iterations 6
GAMG:  Solving for p, Initial residual = 3.84832e-05, Final residual = 1.90129e-07, No Iterations 4
time step continuity errors : sum local = 1.18964e-12, global = -6.13832e-14, cumulative = 7.59058e-08
GAMG:  Solving for p, Initial residual = 6.41182e-05, Final residual = 6.35007e-07, No Iterations 6
GAMG:  Solving for p, Initial residual = 1.45383e-05, Final residual = 4.94252e-08, No Iterations 4
time step continuity errors : sum local = 3.09341e-13, global = 2.28498e-14, cumulative = 7.59058e-08
GAMG:  Solving for p, Initial residual = 1.12114e-05, Final residual = 7.64992e-08, No Iterations 5
GAMG:  Solving for p, Initial residual = 1.7202e-06, Final residual = 9.05965e-09, No Iterations 4
time step continuity errors : sum local = 5.67042e-14, global = 2.98368e-15, cumulative = 7.59058e-08
ExecutionTime = 37.82 s  ClockTime = 40 s

Courant Number mean: 0.0342557 max: 0.713483
Time = 4.07

smoothSolver:  Solving for Ux, Initial residual = 6.95966e-05, Final residual = 7.02331e-09, No Iterations 16
smoothSolver:  Solving for Uy, Initial residual = 0.000807676, Final residual = 9.1629e-09, No Iterations 24
GAMG:  Solving for p, Initial residual = 0.000264844, Final residual = 1.40762e-06, No Iterations 6
GAMG:  Solving for p, Initial residual = 3.82834e-05, Final residual = 1.89486e-07, No Iterations 4
time step continuity errors : sum local = 1.18551e-12, global = -6.16445e-14, cumulative = 7.59057e-08
GAMG:  Solving for p, Initial residual = 6.36996e-05, Final residual = 6.3136e-07, No Iterations 6
GAMG:  Solving for p, Initial residual = 1.4458e-05, Final residual = 4.91721e-08, No Iterations 4
time step continuity errors : sum local = 3.07729e-13, global = 2.27239e-14, cumulative = 7.59058e-08
GAMG:  Solving for p, Initial residual = 1.11475e-05, Final residual = 7.60531e-08, No Iterations 5
GAMG:  Solving for p, Initial residual = 1.71101e-06, Final residual = 8.9876e-09, No Iterations 4
time step continuity errors : sum local = 5.6248e-14, global = 2.9373e-15, cumulative = 7.59058e-08
ExecutionTime = 37.91 s  ClockTime = 40 s

Courant Number mean: 0.0342548 max: 0.713421
Time = 4.08

smoothSolver:  Solving for Ux, Initial residual = 6.95323e-05, Final residual = 6.98567e-09, No Iterations 16
smoothSolver:  Solving for Uy, Initial residual = 0.000806299, Final residual = 9.08947e-09, No Iterations 24
GAMG:  Solving for p, Initial residual = 0.000263366, Final residual = 1.4023e-06, No Iterations 6
GAMG:  Solving for p, Initial residual = 3.80831e-05, Final residual = 1.8884e-07, No Iterations 4
time step continuity errors : sum local = 1.18136e-12, global = -6.18899e-14, cumulative = 7.59057e-08
GAMG:  Solving for p, Initial residual = 6.32863e-05, Final residual = 6.27728e-07, No Iterations 6
GAMG:  Solving for p, Initial residual = 1.43779e-05, Final residual = 4.89192e-08, No Iterations 4
time step continuity errors : sum local = 3.06118e-13, global = 2.25986e-14, cumulative = 7.59057e-08
GAMG:  Solving for p, Initial residual = 1.10838e-05, Final residual = 7.56082e-08, No Iterations 5
GAMG:  Solving for p, Initial residual = 1.70181e-06, Final residual = 8.91576e-09, No Iterations 4
time step continuity errors : sum local = 5.57933e-14, global = 2.89168e-15, cumulative = 7.59057e-08
ExecutionTime = 38 s  ClockTime = 40 s

Courant Number mean: 0.0342538 max: 0.713359
Time = 4.09

smoothSolver:  Solving for Ux, Initial residual = 6.94681e-05, Final residual = 6.94818e-09, No Iterations 16
smoothSolver:  Solving for Uy, Initial residual = 0.000804904, Final residual = 9.01649e-09, No Iterations 24
GAMG:  Solving for p, Initial residual = 0.000261891, Final residual = 1.3969e-06, No Iterations 6
GAMG:  Solving for p, Initial residual = 3.78832e-05, Final residual = 1.88191e-07, No Iterations 4
time step continuity errors : sum local = 1.17719e-12, global = -6.21192e-14, cumulative = 7.59057e-08
GAMG:  Solving for p, Initial residual = 6.28749e-05, Final residual = 6.24111e-07, No Iterations 6
GAMG:  Solving for p, Initial residual = 1.42985e-05, Final residual = 4.86665e-08, No Iterations 4
time step continuity errors : sum local = 3.04509e-13, global = 2.24738e-14, cumulative = 7.59057e-08
GAMG:  Solving for p, Initial residual = 1.10202e-05, Final residual = 7.51644e-08, No Iterations 5
GAMG:  Solving for p, Initial residual = 1.69262e-06, Final residual = 8.84417e-09, No Iterations 4
time step continuity errors : sum local = 5.53403e-14, global = 2.84687e-15, cumulative = 7.59057e-08
ExecutionTime = 38.08 s  ClockTime = 40 s

Courant Number mean: 0.0342529 max: 0.713298
Time = 4.1

smoothSolver:  Solving for Ux, Initial residual = 6.9404e-05, Final residual = 6.91085e-09, No Iterations 16
smoothSolver:  Solving for Uy, Initial residual = 0.000803498, Final residual = 8.94394e-09, No Iterations 24
GAMG:  Solving for p, Initial residual = 0.00026042, Final residual = 1.39144e-06, No Iterations 6
GAMG:  Solving for p, Initial residual = 3.76837e-05, Final residual = 1.87537e-07, No Iterations 4
time step continuity errors : sum local = 1.173e-12, global = -6.23326e-14, cumulative = 7.59056e-08
GAMG:  Solving for p, Initial residual = 6.24651e-05, Final residual = 6.20512e-07, No Iterations 6
GAMG:  Solving for p, Initial residual = 1.42195e-05, Final residual = 4.84142e-08, No Iterations 4
time step continuity errors : sum local = 3.02903e-13, global = 2.23494e-14, cumulative = 7.59056e-08
GAMG:  Solving for p, Initial residual = 1.09567e-05, Final residual = 7.47216e-08, No Iterations 5
GAMG:  Solving for p, Initial residual = 1.68343e-06, Final residual = 8.77288e-09, No Iterations 4
time step continuity errors : sum local = 5.48892e-14, global = 2.80285e-15, cumulative = 7.59057e-08
ExecutionTime = 38.16 s  ClockTime = 40 s

Courant Number mean: 0.034252 max: 0.713237
Time = 4.11

smoothSolver:  Solving for Ux, Initial residual = 6.93399e-05, Final residual = 6.87366e-09, No Iterations 16
smoothSolver:  Solving for Uy, Initial residual = 0.000802084, Final residual = 8.87183e-09, No Iterations 24
GAMG:  Solving for p, Initial residual = 0.000258967, Final residual = 1.38592e-06, No Iterations 6
GAMG:  Solving for p, Initial residual = 3.74838e-05, Final residual = 1.86879e-07, No Iterations 4
time step continuity errors : sum local = 1.16878e-12, global = -6.25304e-14, cumulative = 7.59056e-08
GAMG:  Solving for p, Initial residual = 6.20572e-05, Final residual = 6.16925e-07, No Iterations 6
GAMG:  Solving for p, Initial residual = 1.41408e-05, Final residual = 4.81627e-08, No Iterations 4
time step continuity errors : sum local = 3.01302e-13, global = 2.22256e-14, cumulative = 7.59056e-08
GAMG:  Solving for p, Initial residual = 1.08934e-05, Final residual = 7.428e-08, No Iterations 5
GAMG:  Solving for p, Initial residual = 1.67425e-06, Final residual = 8.7018e-09, No Iterations 4
time step continuity errors : sum local = 5.44395e-14, global = 2.7596e-15, cumulative = 7.59056e-08
ExecutionTime = 38.24 s  ClockTime = 40 s

Courant Number mean: 0.034251 max: 0.713177
Time = 4.12

smoothSolver:  Solving for Ux, Initial residual = 6.9276e-05, Final residual = 6.83663e-09, No Iterations 16
smoothSolver:  Solving for Uy, Initial residual = 0.000800653, Final residual = 8.80017e-09, No Iterations 24
GAMG:  Solving for p, Initial residual = 0.000257527, Final residual = 1.38034e-06, No Iterations 6
GAMG:  Solving for p, Initial residual = 3.72835e-05, Final residual = 1.86216e-07, No Iterations 4
time step continuity errors : sum local = 1.16454e-12, global = -6.27127e-14, cumulative = 7.59055e-08
GAMG:  Solving for p, Initial residual = 6.16525e-05, Final residual = 6.13347e-07, No Iterations 6
GAMG:  Solving for p, Initial residual = 1.40621e-05, Final residual = 4.79114e-08, No Iterations 4
time step continuity errors : sum local = 2.99704e-13, global = 2.21022e-14, cumulative = 7.59056e-08
GAMG:  Solving for p, Initial residual = 1.08302e-05, Final residual = 7.3839e-08, No Iterations 5
GAMG:  Solving for p, Initial residual = 1.66507e-06, Final residual = 8.63091e-09, No Iterations 4
time step continuity errors : sum local = 5.39915e-14, global = 2.71708e-15, cumulative = 7.59056e-08
ExecutionTime = 38.32 s  ClockTime = 40 s

Courant Number mean: 0.0342501 max: 0.713117
Time = 4.13

smoothSolver:  Solving for Ux, Initial residual = 6.92122e-05, Final residual = 6.79974e-09, No Iterations 16
smoothSolver:  Solving for Uy, Initial residual = 0.000799207, Final residual = 8.72896e-09, No Iterations 24
GAMG:  Solving for p, Initial residual = 0.000256136, Final residual = 1.37469e-06, No Iterations 6
GAMG:  Solving for p, Initial residual = 3.70834e-05, Final residual = 1.85551e-07, No Iterations 4
time step continuity errors : sum local = 1.16028e-12, global = -6.28796e-14, cumulative = 7.59055e-08
GAMG:  Solving for p, Initial residual = 6.12505e-05, Final residual = 6.09777e-07, No Iterations 6
