/*---------------------------------------------------------------------------*\
  =========                 |
  \\      /  F ield         | OpenFOAM: The Open Source CFD Toolbox
   \\    /   O peration     | Website:  https://openfoam.org
    \\  /    A nd           | Version:  6
     \\/     M anipulation  |
\*---------------------------------------------------------------------------*/
Build  : 6
Exec   : LidDrivenCavity
Date   : Jul 15 2019
Time   : 18:26:16
Host   : "cfdclu17.ugent.be"
PID    : 27088
I/O    : uncollated
Case   : /cfdfile2/data/fm/sabrina/ITHACA-FV/tutorials/LidDrivenCavity
nProcs : 1
sigFpe : Enabling floating point exception trapping (FOAM_SIGFPE).
fileModificationChecking : Monitoring run-time modified files using timeStampMaster (fileModificationSkew 10)
allowSystemOperations : Allowing user-supplied system call operations

// * * * * * * * * * * * * * * * * * * * * * * * * * * * * * * * * * * * * * //
Reading field p

Create time

Reading field p

Create mesh for time = 0


PIMPLE: No convergence criteria found


PIMPLE: Operating solver in PISO mode

Reading field p

Reading field U

Reading/calculating face flux field phi

Selecting incompressible transport model Newtonian
Selecting turbulence model type laminar
Selecting laminar stress model Stokes
No MRF models present

Reading field p

Offline don't exist, performing the Offline Solve
POD don't exist, performing a POD decomposition
Supremizers don't exist, performing a POD decomposition
Courant Number mean: 0 max: 0
Time = 0

smoothSolver:  Solving for Ux, Initial residual = 1, Final residual = 9.6361e-07, No Iterations 5
smoothSolver:  Solving for Uy, Initial residual = 0.98026, Final residual = 1.72698e-07, No Iterations 5
DICPCG:  Solving for p, Initial residual = 1, Final residual = 9.82084e-07, No Iterations 273
DICPCG:  Solving for p, Initial residual = 4.91042e-07, Final residual = 4.91042e-07, No Iterations 0
DICPCG:  Solving for p, Initial residual = 4.91042e-07, Final residual = 4.91042e-07, No Iterations 0
time step continuity errors : sum local = 1.464e-11, global = -1.15958e-21, cumulative = -1.15958e-21
DICPCG:  Solving for p, Initial residual = 0.233327, Final residual = 9.38706e-07, No Iterations 256
DICPCG:  Solving for p, Initial residual = 9.51496e-07, Final residual = 9.51496e-07, No Iterations 0
DICPCG:  Solving for p, Initial residual = 9.51496e-07, Final residual = 9.51496e-07, No Iterations 0
time step continuity errors : sum local = 2.76156e-11, global = -6.03608e-22, cumulative = -1.76319e-21
ExecutionTime = 2.53 s  ClockTime = 3 s

Courant Number mean: 0.00375347 max: 0.252295
Time = 0.0005

smoothSolver:  Solving for Ux, Initial residual = 0.305567, Final residual = 7.2368e-07, No Iterations 4
smoothSolver:  Solving for Uy, Initial residual = 0.330502, Final residual = 5.2905e-08, No Iterations 5
DICPCG:  Solving for p, Initial residual = 0.133133, Final residual = 8.88813e-07, No Iterations 250
DICPCG:  Solving for p, Initial residual = 8.1441e-07, Final residual = 8.1441e-07, No Iterations 0
DICPCG:  Solving for p, Initial residual = 8.1441e-07, Final residual = 8.1441e-07, No Iterations 0
time step continuity errors : sum local = 2.29814e-11, global = 1.06518e-20, cumulative = 8.88861e-21
DICPCG:  Solving for p, Initial residual = 0.0345333, Final residual = 9.69206e-07, No Iterations 223
DICPCG:  Solving for p, Initial residual = 9.96755e-07, Final residual = 9.96755e-07, No Iterations 0
DICPCG:  Solving for p, Initial residual = 9.96755e-07, Final residual = 9.96755e-07, No Iterations 0
time step continuity errors : sum local = 2.66139e-11, global = 3.39746e-21, cumulative = 1.22861e-20
ExecutionTime = 3.7 s  ClockTime = 5 s

Courant Number mean: 0.00685863 max: 0.437482
Time = 0.001

smoothSolver:  Solving for Ux, Initial residual = 0.157708, Final residual = 3.75868e-07, No Iterations 4
smoothSolver:  Solving for Uy, Initial residual = 0.173008, Final residual = 6.34231e-07, No Iterations 4
DICPCG:  Solving for p, Initial residual = 0.109239, Final residual = 9.75431e-07, No Iterations 241
DICPCG:  Solving for p, Initial residual = 8.96667e-07, Final residual = 8.96667e-07, No Iterations 0
DICPCG:  Solving for p, Initial residual = 8.96667e-07, Final residual = 8.96667e-07, No Iterations 0
time step continuity errors : sum local = 2.85526e-11, global = 5.64912e-21, cumulative = 1.79352e-20
DICPCG:  Solving for p, Initial residual = 0.0264512, Final residual = 9.35992e-07, No Iterations 198
DICPCG:  Solving for p, Initial residual = 9.56061e-07, Final residual = 9.56061e-07, No Iterations 0
DICPCG:  Solving for p, Initial residual = 9.56061e-07, Final residual = 9.56061e-07, No Iterations 0
time step continuity errors : sum local = 2.91921e-11, global = 4.12384e-21, cumulative = 2.2059e-20
ExecutionTime = 4.25 s  ClockTime = 5 s

Courant Number mean: 0.00931991 max: 0.559312
Time = 0.0015

smoothSolver:  Solving for Ux, Initial residual = 0.0979837, Final residual = 2.3933e-07, No Iterations 4
smoothSolver:  Solving for Uy, Initial residual = 0.10787, Final residual = 3.97794e-07, No Iterations 4
DICPCG:  Solving for p, Initial residual = 0.0793214, Final residual = 9.00809e-07, No Iterations 235
DICPCG:  Solving for p, Initial residual = 8.46871e-07, Final residual = 8.46871e-07, No Iterations 0
DICPCG:  Solving for p, Initial residual = 8.46871e-07, Final residual = 8.46871e-07, No Iterations 0
time step continuity errors : sum local = 2.9376e-11, global = -8.3242e-21, cumulative = 1.37348e-20
DICPCG:  Solving for p, Initial residual = 0.0196215, Final residual = 9.85496e-07, No Iterations 193
DICPCG:  Solving for p, Initial residual = 1.00025e-06, Final residual = 6.61946e-07, No Iterations 1
DICPCG:  Solving for p, Initial residual = 6.61946e-07, Final residual = 6.61946e-07, No Iterations 0
time step continuity errors : sum local = 2.22938e-11, global = -9.77077e-21, cumulative = 3.96407e-21
ExecutionTime = 4.79 s  ClockTime = 6 s

Courant Number mean: 0.0112938 max: 0.636758
Time = 0.002

smoothSolver:  Solving for Ux, Initial residual = 0.0684251, Final residual = 1.72142e-07, No Iterations 4
smoothSolver:  Solving for Uy, Initial residual = 0.0752058, Final residual = 2.78699e-07, No Iterations 4
DICPCG:  Solving for p, Initial residual = 0.058323, Final residual = 9.80883e-07, No Iterations 199
DICPCG:  Solving for p, Initial residual = 9.38731e-07, Final residual = 9.38731e-07, No Iterations 0
DICPCG:  Solving for p, Initial residual = 9.38731e-07, Final residual = 9.38731e-07, No Iterations 0
time step continuity errors : sum local = 3.45884e-11, global = -9.31828e-21, cumulative = -5.35421e-21
DICPCG:  Solving for p, Initial residual = 0.0147799, Final residual = 8.99615e-07, No Iterations 191
DICPCG:  Solving for p, Initial residual = 9.08819e-07, Final residual = 9.08819e-07, No Iterations 0
DICPCG:  Solving for p, Initial residual = 9.08819e-07, Final residual = 9.08819e-07, No Iterations 0
time step continuity errors : sum local = 3.28148e-11, global = 4.43171e-21, cumulative = -9.22499e-22
ExecutionTime = 5.29 s  ClockTime = 6 s

Courant Number mean: 0.0129425 max: 0.686584
Time = 0.0025

smoothSolver:  Solving for Ux, Initial residual = 0.0518983, Final residual = 1.33764e-07, No Iterations 4
smoothSolver:  Solving for Uy, Initial residual = 0.0569198, Final residual = 2.1157e-07, No Iterations 4
DICPCG:  Solving for p, Initial residual = 0.0453838, Final residual = 9.69695e-07, No Iterations 196
DICPCG:  Solving for p, Initial residual = 9.39252e-07, Final residual = 9.39252e-07, No Iterations 0
DICPCG:  Solving for p, Initial residual = 9.39252e-07, Final residual = 9.39252e-07, No Iterations 0
time step continuity errors : sum local = 3.61857e-11, global = -1.55202e-21, cumulative = -2.47452e-21
DICPCG:  Solving for p, Initial residual = 0.0117516, Final residual = 9.31193e-07, No Iterations 189
DICPCG:  Solving for p, Initial residual = 9.3844e-07, Final residual = 9.3844e-07, No Iterations 0
DICPCG:  Solving for p, Initial residual = 9.3844e-07, Final residual = 9.3844e-07, No Iterations 0
time step continuity errors : sum local = 3.56003e-11, global = 2.17146e-20, cumulative = 1.92401e-20
ExecutionTime = 5.79 s  ClockTime = 7 s

Courant Number mean: 0.0143655 max: 0.720082
Time = 0.003

smoothSolver:  Solving for Ux, Initial residual = 0.0417976, Final residual = 1.09643e-07, No Iterations 4
smoothSolver:  Solving for Uy, Initial residual = 0.0457041, Final residual = 1.70189e-07, No Iterations 4
DICPCG:  Solving for p, Initial residual = 0.0369802, Final residual = 8.97931e-07, No Iterations 193
DICPCG:  Solving for p, Initial residual = 8.75647e-07, Final residual = 8.75647e-07, No Iterations 0
DICPCG:  Solving for p, Initial residual = 8.75647e-07, Final residual = 8.75647e-07, No Iterations 0
time step continuity errors : sum local = 3.49531e-11, global = -1.26721e-20, cumulative = 6.56795e-21
DICPCG:  Solving for p, Initial residual = 0.00975486, Final residual = 9.78551e-07, No Iterations 186
DICPCG:  Solving for p, Initial residual = 9.84845e-07, Final residual = 9.84845e-07, No Iterations 0
DICPCG:  Solving for p, Initial residual = 9.84845e-07, Final residual = 9.84845e-07, No Iterations 0
time step continuity errors : sum local = 3.88126e-11, global = 1.70854e-20, cumulative = 2.36534e-20
ExecutionTime = 6.28 s  ClockTime = 7 s

Courant Number mean: 0.0156267 max: 0.744002
Time = 0.0035

smoothSolver:  Solving for Ux, Initial residual = 0.0350546, Final residual = 9.32594e-08, No Iterations 4
smoothSolver:  Solving for Uy, Initial residual = 0.0382608, Final residual = 1.42599e-07, No Iterations 4
DICPCG:  Solving for p, Initial residual = 0.0316757, Final residual = 8.53912e-07, No Iterations 192
DICPCG:  Solving for p, Initial residual = 8.36401e-07, Final residual = 8.36401e-07, No Iterations 0
DICPCG:  Solving for p, Initial residual = 8.36401e-07, Final residual = 8.36401e-07, No Iterations 0
time step continuity errors : sum local = 3.43722e-11, global = -1.77278e-20, cumulative = 5.92561e-21
DICPCG:  Solving for p, Initial residual = 0.00839323, Final residual = 9.55173e-07, No Iterations 184
DICPCG:  Solving for p, Initial residual = 9.59958e-07, Final residual = 9.59958e-07, No Iterations 0
DICPCG:  Solving for p, Initial residual = 9.59958e-07, Final residual = 9.59958e-07, No Iterations 0
time step continuity errors : sum local = 3.90585e-11, global = -4.59543e-21, cumulative = 1.33019e-21
ExecutionTime = 6.77 s  ClockTime = 8 s

Courant Number mean: 0.0167671 max: 0.762154
Time = 0.004

smoothSolver:  Solving for Ux, Initial residual = 0.0302965, Final residual = 8.13898e-08, No Iterations 4
smoothSolver:  Solving for Uy, Initial residual = 0.0329766, Final residual = 1.22933e-07, No Iterations 4
DICPCG:  Solving for p, Initial residual = 0.0276725, Final residual = 8.77325e-07, No Iterations 191
DICPCG:  Solving for p, Initial residual = 8.62718e-07, Final residual = 8.62718e-07, No Iterations 0
DICPCG:  Solving for p, Initial residual = 8.62718e-07, Final residual = 8.62718e-07, No Iterations 0
time step continuity errors : sum local = 3.63111e-11, global = 1.42263e-20, cumulative = 1.55565e-20
DICPCG:  Solving for p, Initial residual = 0.00755632, Final residual = 9.53953e-07, No Iterations 183
DICPCG:  Solving for p, Initial residual = 9.58172e-07, Final residual = 9.58172e-07, No Iterations 0
DICPCG:  Solving for p, Initial residual = 9.58172e-07, Final residual = 9.58172e-07, No Iterations 0
time step continuity errors : sum local = 3.9975e-11, global = -1.34737e-20, cumulative = 2.08279e-21
ExecutionTime = 7.26 s  ClockTime = 8 s

Courant Number mean: 0.0178258 max: 0.776638
Time = 0.0045

smoothSolver:  Solving for Ux, Initial residual = 0.0267194, Final residual = 7.2329e-08, No Iterations 4
smoothSolver:  Solving for Uy, Initial residual = 0.0290149, Final residual = 1.08148e-07, No Iterations 4
DICPCG:  Solving for p, Initial residual = 0.0250227, Final residual = 9.01361e-07, No Iterations 190
DICPCG:  Solving for p, Initial residual = 8.88326e-07, Final residual = 8.88326e-07, No Iterations 0
DICPCG:  Solving for p, Initial residual = 8.88326e-07, Final residual = 8.88326e-07, No Iterations 0
time step continuity errors : sum local = 3.81649e-11, global = -9.51238e-22, cumulative = 1.13155e-21
DICPCG:  Solving for p, Initial residual = 0.00692903, Final residual = 9.22021e-07, No Iterations 182
DICPCG:  Solving for p, Initial residual = 9.25607e-07, Final residual = 9.25607e-07, No Iterations 0
DICPCG:  Solving for p, Initial residual = 9.25607e-07, Final residual = 9.25607e-07, No Iterations 0
time step continuity errors : sum local = 3.94597e-11, global = 1.17248e-20, cumulative = 1.28564e-20
ExecutionTime = 7.75 s  ClockTime = 9 s

Courant Number mean: 0.0188154 max: 0.788632
Time = 0.005

smoothSolver:  Solving for Ux, Initial residual = 0.0238993, Final residual = 6.51676e-08, No Iterations 4
smoothSolver:  Solving for Uy, Initial residual = 0.0259232, Final residual = 9.65729e-08, No Iterations 4
DICPCG:  Solving for p, Initial residual = 0.0227719, Final residual = 9.20482e-07, No Iterations 189
DICPCG:  Solving for p, Initial residual = 9.0834e-07, Final residual = 9.0834e-07, No Iterations 0
DICPCG:  Solving for p, Initial residual = 9.0834e-07, Final residual = 9.0834e-07, No Iterations 0
time step continuity errors : sum local = 3.97728e-11, global = 2.46812e-20, cumulative = 3.75376e-20
DICPCG:  Solving for p, Initial residual = 0.00639256, Final residual = 9.38424e-07, No Iterations 181
DICPCG:  Solving for p, Initial residual = 9.4142e-07, Final residual = 9.4142e-07, No Iterations 0
DICPCG:  Solving for p, Initial residual = 9.4142e-07, Final residual = 9.4142e-07, No Iterations 0
time step continuity errors : sum local = 4.09597e-11, global = -2.29845e-20, cumulative = 1.45531e-20
ExecutionTime = 8.24 s  ClockTime = 9 s

Courant Number mean: 0.0197455 max: 0.798822
Time = 0.0055

smoothSolver:  Solving for Ux, Initial residual = 0.021625, Final residual = 5.93259e-08, No Iterations 4
smoothSolver:  Solving for Uy, Initial residual = 0.0234331, Final residual = 8.72348e-08, No Iterations 4
DICPCG:  Solving for p, Initial residual = 0.0209812, Final residual = 9.33024e-07, No Iterations 188
DICPCG:  Solving for p, Initial residual = 9.22425e-07, Final residual = 9.22425e-07, No Iterations 0
DICPCG:  Solving for p, Initial residual = 9.22425e-07, Final residual = 9.22425e-07, No Iterations 0
time step continuity errors : sum local = 4.10663e-11, global = -2.67534e-20, cumulative = -1.22003e-20
DICPCG:  Solving for p, Initial residual = 0.00592628, Final residual = 8.23865e-07, No Iterations 181
DICPCG:  Solving for p, Initial residual = 8.26285e-07, Final residual = 8.26285e-07, No Iterations 0
DICPCG:  Solving for p, Initial residual = 8.26285e-07, Final residual = 8.26285e-07, No Iterations 0
time step continuity errors : sum local = 3.65712e-11, global = -1.98979e-20, cumulative = -3.20981e-20
ExecutionTime = 8.72 s  ClockTime = 10 s

Courant Number mean: 0.0206227 max: 0.807638
Time = 0.006

smoothSolver:  Solving for Ux, Initial residual = 0.0197602, Final residual = 5.4459e-08, No Iterations 4
smoothSolver:  Solving for Uy, Initial residual = 0.0213843, Final residual = 7.95292e-08, No Iterations 4
DICPCG:  Solving for p, Initial residual = 0.0194471, Final residual = 9.24146e-07, No Iterations 187
DICPCG:  Solving for p, Initial residual = 9.14916e-07, Final residual = 9.14916e-07, No Iterations 0
DICPCG:  Solving for p, Initial residual = 9.14916e-07, Final residual = 9.14916e-07, No Iterations 0
time step continuity errors : sum local = 4.13194e-11, global = -1.98887e-20, cumulative = -5.19868e-20
DICPCG:  Solving for p, Initial residual = 0.0055776, Final residual = 8.97719e-07, No Iterations 180
DICPCG:  Solving for p, Initial residual = 8.99946e-07, Final residual = 8.99946e-07, No Iterations 0
DICPCG:  Solving for p, Initial residual = 8.99946e-07, Final residual = 8.99946e-07, No Iterations 0
time step continuity errors : sum local = 4.04427e-11, global = 7.69747e-22, cumulative = -5.1217e-20
ExecutionTime = 9.2 s  ClockTime = 10 s

Courant Number mean: 0.0214534 max: 0.815368
Time = 0.0065

smoothSolver:  Solving for Ux, Initial residual = 0.0181925, Final residual = 5.03388e-08, No Iterations 4
smoothSolver:  Solving for Uy, Initial residual = 0.0196656, Final residual = 7.30581e-08, No Iterations 4
DICPCG:  Solving for p, Initial residual = 0.0181209, Final residual = 9.46933e-07, No Iterations 186
DICPCG:  Solving for p, Initial residual = 9.3888e-07, Final residual = 9.3888e-07, No Iterations 0
DICPCG:  Solving for p, Initial residual = 9.3888e-07, Final residual = 9.3888e-07, No Iterations 0
time step continuity errors : sum local = 4.29223e-11, global = -8.47139e-21, cumulative = -5.96884e-20
DICPCG:  Solving for p, Initial residual = 0.00527255, Final residual = 8.13222e-07, No Iterations 180
DICPCG:  Solving for p, Initial residual = 8.14991e-07, Final residual = 8.14991e-07, No Iterations 0
DICPCG:  Solving for p, Initial residual = 8.14991e-07, Final residual = 8.14991e-07, No Iterations 0
time step continuity errors : sum local = 3.70972e-11, global = -2.93732e-21, cumulative = -6.26257e-20
ExecutionTime = 9.69 s  ClockTime = 11 s

Courant Number mean: 0.0222486 max: 0.822218
Time = 0.007

smoothSolver:  Solving for Ux, Initial residual = 0.0168496, Final residual = 4.6792e-08, No Iterations 4
smoothSolver:  Solving for Uy, Initial residual = 0.0182026, Final residual = 6.75449e-08, No Iterations 4
DICPCG:  Solving for p, Initial residual = 0.0171, Final residual = 8.71428e-07, No Iterations 186
DICPCG:  Solving for p, Initial residual = 8.64994e-07, Final residual = 8.64994e-07, No Iterations 0
DICPCG:  Solving for p, Initial residual = 8.64994e-07, Final residual = 8.64994e-07, No Iterations 0
time step continuity errors : sum local = 3.99633e-11, global = -6.85022e-21, cumulative = -6.9476e-20
DICPCG:  Solving for p, Initial residual = 0.00501303, Final residual = 9.02751e-07, No Iterations 179
DICPCG:  Solving for p, Initial residual = 9.04489e-07, Final residual = 9.04489e-07, No Iterations 0
DICPCG:  Solving for p, Initial residual = 9.04489e-07, Final residual = 9.04489e-07, No Iterations 0
time step continuity errors : sum local = 4.16277e-11, global = 7.51725e-21, cumulative = -6.19587e-20
ExecutionTime = 10.17 s  ClockTime = 11 s

Courant Number mean: 0.0230135 max: 0.828341
Time = 0.0075

smoothSolver:  Solving for Ux, Initial residual = 0.0156876, Final residual = 4.37212e-08, No Iterations 4
smoothSolver:  Solving for Uy, Initial residual = 0.0169433, Final residual = 6.27928e-08, No Iterations 4
DICPCG:  Solving for p, Initial residual = 0.0162108, Final residual = 9.31394e-07, No Iterations 185
DICPCG:  Solving for p, Initial residual = 9.25424e-07, Final residual = 9.25424e-07, No Iterations 0
DICPCG:  Solving for p, Initial residual = 9.25424e-07, Final residual = 9.25424e-07, No Iterations 0
time step continuity errors : sum local = 4.31442e-11, global = 8.51204e-21, cumulative = -5.34467e-20
DICPCG:  Solving for p, Initial residual = 0.00476885, Final residual = 8.25177e-07, No Iterations 179
DICPCG:  Solving for p, Initial residual = 8.26523e-07, Final residual = 8.26523e-07, No Iterations 0
DICPCG:  Solving for p, Initial residual = 8.26523e-07, Final residual = 8.26523e-07, No Iterations 0
time step continuity errors : sum local = 3.84081e-11, global = -1.72347e-20, cumulative = -7.06814e-20
ExecutionTime = 10.66 s  ClockTime = 12 s

Courant Number mean: 0.0237485 max: 0.833857
Time = 0.008

smoothSolver:  Solving for Ux, Initial residual = 0.0146801, Final residual = 9.73292e-07, No Iterations 3
smoothSolver:  Solving for Uy, Initial residual = 0.0158468, Final residual = 5.86541e-08, No Iterations 4
DICPCG:  Solving for p, Initial residual = 0.0154358, Final residual = 9.79243e-07, No Iterations 184
DICPCG:  Solving for p, Initial residual = 9.73771e-07, Final residual = 9.73771e-07, No Iterations 0
DICPCG:  Solving for p, Initial residual = 9.73771e-07, Final residual = 9.73771e-07, No Iterations 0
time step continuity errors : sum local = 4.57621e-11, global = 8.91755e-21, cumulative = -6.17638e-20
DICPCG:  Solving for p, Initial residual = 0.00457206, Final residual = 9.31454e-07, No Iterations 178
DICPCG:  Solving for p, Initial residual = 9.32789e-07, Final residual = 9.32789e-07, No Iterations 0
DICPCG:  Solving for p, Initial residual = 9.32789e-07, Final residual = 9.32789e-07, No Iterations 0
time step continuity errors : sum local = 4.37108e-11, global = -4.75444e-20, cumulative = -1.09308e-19
ExecutionTime = 11.13 s  ClockTime = 12 s

Courant Number mean: 0.0244556 max: 0.838858
Time = 0.0085

smoothSolver:  Solving for Ux, Initial residual = 0.0137934, Final residual = 9.16696e-07, No Iterations 3
smoothSolver:  Solving for Uy, Initial residual = 0.0148847, Final residual = 5.50182e-08, No Iterations 4
DICPCG:  Solving for p, Initial residual = 0.0148264, Final residual = 9.14547e-07, No Iterations 184
DICPCG:  Solving for p, Initial residual = 9.09826e-07, Final residual = 9.09826e-07, No Iterations 0
DICPCG:  Solving for p, Initial residual = 9.09826e-07, Final residual = 9.09826e-07, No Iterations 0
time step continuity errors : sum local = 4.30795e-11, global = 5.93624e-21, cumulative = -1.03372e-19
DICPCG:  Solving for p, Initial residual = 0.00441078, Final residual = 8.84911e-07, No Iterations 178
DICPCG:  Solving for p, Initial residual = 8.86075e-07, Final residual = 8.86075e-07, No Iterations 0
DICPCG:  Solving for p, Initial residual = 8.86075e-07, Final residual = 8.86075e-07, No Iterations 0
time step continuity errors : sum local = 4.18448e-11, global = -1.16297e-20, cumulative = -1.15002e-19
ExecutionTime = 11.61 s  ClockTime = 13 s

Courant Number mean: 0.0251364 max: 0.843419
Time = 0.009

smoothSolver:  Solving for Ux, Initial residual = 0.0130059, Final residual = 8.66366e-07, No Iterations 3
smoothSolver:  Solving for Uy, Initial residual = 0.0140337, Final residual = 5.17991e-08, No Iterations 4
DICPCG:  Solving for p, Initial residual = 0.0142591, Final residual = 8.59257e-07, No Iterations 184
DICPCG:  Solving for p, Initial residual = 8.55097e-07, Final residual = 8.55097e-07, No Iterations 0
DICPCG:  Solving for p, Initial residual = 8.55097e-07, Final residual = 8.55097e-07, No Iterations 0
time step continuity errors : sum local = 4.07767e-11, global = -3.18851e-21, cumulative = -1.1819e-19
DICPCG:  Solving for p, Initial residual = 0.00424608, Final residual = 9.82869e-07, No Iterations 177
DICPCG:  Solving for p, Initial residual = 9.84176e-07, Final residual = 9.84176e-07, No Iterations 0
DICPCG:  Solving for p, Initial residual = 9.84176e-07, Final residual = 9.84176e-07, No Iterations 0
time step continuity errors : sum local = 4.68075e-11, global = 1.92685e-20, cumulative = -9.89217e-20
ExecutionTime = 12.09 s  ClockTime = 13 s

Courant Number mean: 0.0257933 max: 0.847602
Time = 0.0095

smoothSolver:  Solving for Ux, Initial residual = 0.0123017, Final residual = 8.21302e-07, No Iterations 3
smoothSolver:  Solving for Uy, Initial residual = 0.0132749, Final residual = 4.89286e-08, No Iterations 4
DICPCG:  Solving for p, Initial residual = 0.0137218, Final residual = 9.40839e-07, No Iterations 183
DICPCG:  Solving for p, Initial residual = 9.36518e-07, Final residual = 9.36518e-07, No Iterations 0
DICPCG:  Solving for p, Initial residual = 9.36518e-07, Final residual = 9.36518e-07, No Iterations 0
time step continuity errors : sum local = 4.49538e-11, global = 2.88287e-20, cumulative = -7.0093e-20
DICPCG:  Solving for p, Initial residual = 0.00408783, Final residual = 9.26115e-07, No Iterations 177
DICPCG:  Solving for p, Initial residual = 9.27264e-07, Final residual = 9.27264e-07, No Iterations 0
DICPCG:  Solving for p, Initial residual = 9.27264e-07, Final residual = 9.27264e-07, No Iterations 0
time step continuity errors : sum local = 4.43995e-11, global = -2.74268e-21, cumulative = -7.28357e-20
ExecutionTime = 12.57 s  ClockTime = 14 s

Courant Number mean: 0.0264272 max: 0.851456
Time = 0.01

smoothSolver:  Solving for Ux, Initial residual = 0.0116716, Final residual = 7.80715e-07, No Iterations 3
smoothSolver:  Solving for Uy, Initial residual = 0.0125956, Final residual = 4.63554e-08, No Iterations 4
DICPCG:  Solving for p, Initial residual = 0.0132473, Final residual = 8.85302e-07, No Iterations 183
DICPCG:  Solving for p, Initial residual = 8.8155e-07, Final residual = 8.8155e-07, No Iterations 0
DICPCG:  Solving for p, Initial residual = 8.8155e-07, Final residual = 8.8155e-07, No Iterations 0
time step continuity errors : sum local = 4.25715e-11, global = -1.72073e-20, cumulative = -9.0043e-20
DICPCG:  Solving for p, Initial residual = 0.00394612, Final residual = 9.0143e-07, No Iterations 177
DICPCG:  Solving for p, Initial residual = 9.02407e-07, Final residual = 9.02407e-07, No Iterations 0
DICPCG:  Solving for p, Initial residual = 9.02407e-07, Final residual = 9.02407e-07, No Iterations 0
time step continuity errors : sum local = 4.34844e-11, global = 1.13008e-20, cumulative = -7.87422e-20
ExecutionTime = 13.05 s  ClockTime = 14 s

Courant Number mean: 0.0270447 max: 0.855021
Time = 0.0105

smoothSolver:  Solving for Ux, Initial residual = 0.0111053, Final residual = 7.43851e-07, No Iterations 3
smoothSolver:  Solving for Uy, Initial residual = 0.0119825, Final residual = 4.40331e-08, No Iterations 4
DICPCG:  Solving for p, Initial residual = 0.0127938, Final residual = 8.37549e-07, No Iterations 183
DICPCG:  Solving for p, Initial residual = 8.34357e-07, Final residual = 8.34357e-07, No Iterations 0
DICPCG:  Solving for p, Initial residual = 8.34357e-07, Final residual = 8.34357e-07, No Iterations 0
time step continuity errors : sum local = 4.05141e-11, global = 2.8327e-20, cumulative = -5.04152e-20
DICPCG:  Solving for p, Initial residual = 0.00384852, Final residual = 8.70226e-07, No Iterations 177
DICPCG:  Solving for p, Initial residual = 8.71119e-07, Final residual = 8.71119e-07, No Iterations 0
DICPCG:  Solving for p, Initial residual = 8.71119e-07, Final residual = 8.71119e-07, No Iterations 0
time step continuity errors : sum local = 4.22125e-11, global = 1.75306e-20, cumulative = -3.28846e-20
ExecutionTime = 13.9 s  ClockTime = 15 s

Courant Number mean: 0.0276467 max: 0.858332
Time = 0.011

smoothSolver:  Solving for Ux, Initial residual = 0.0105895, Final residual = 7.10377e-07, No Iterations 3
smoothSolver:  Solving for Uy, Initial residual = 0.0114273, Final residual = 9.55364e-07, No Iterations 3
DICPCG:  Solving for p, Initial residual = 0.012413, Final residual = 9.54779e-07, No Iterations 182
DICPCG:  Solving for p, Initial residual = 9.51445e-07, Final residual = 9.51445e-07, No Iterations 0
DICPCG:  Solving for p, Initial residual = 9.51445e-07, Final residual = 9.51445e-07, No Iterations 0
time step continuity errors : sum local = 4.64291e-11, global = -2.48215e-21, cumulative = -3.53667e-20
DICPCG:  Solving for p, Initial residual = 0.00375121, Final residual = 9.36319e-07, No Iterations 176
DICPCG:  Solving for p, Initial residual = 9.37114e-07, Final residual = 9.37114e-07, No Iterations 0
DICPCG:  Solving for p, Initial residual = 9.37114e-07, Final residual = 9.37114e-07, No Iterations 0
time step continuity errors : sum local = 4.56523e-11, global = 2.0805e-20, cumulative = -1.45617e-20
ExecutionTime = 14.37 s  ClockTime = 16 s

Courant Number mean: 0.0282328 max: 0.861417
Time = 0.0115

smoothSolver:  Solving for Ux, Initial residual = 0.0101179, Final residual = 6.79823e-07, No Iterations 3
smoothSolver:  Solving for Uy, Initial residual = 0.0109221, Final residual = 9.1188e-07, No Iterations 3
DICPCG:  Solving for p, Initial residual = 0.0120947, Final residual = 9.131e-07, No Iterations 182
DICPCG:  Solving for p, Initial residual = 9.10226e-07, Final residual = 9.10226e-07, No Iterations 0
DICPCG:  Solving for p, Initial residual = 9.10226e-07, Final residual = 9.10226e-07, No Iterations 0
time step continuity errors : sum local = 4.46233e-11, global = -2.72657e-20, cumulative = -4.18274e-20
DICPCG:  Solving for p, Initial residual = 0.00365414, Final residual = 9.50784e-07, No Iterations 175
DICPCG:  Solving for p, Initial residual = 9.51535e-07, Final residual = 9.51535e-07, No Iterations 0
DICPCG:  Solving for p, Initial residual = 9.51535e-07, Final residual = 9.51535e-07, No Iterations 0
time step continuity errors : sum local = 4.65749e-11, global = 6.70273e-21, cumulative = -3.51246e-20
ExecutionTime = 14.83 s  ClockTime = 16 s

Courant Number mean: 0.0288035 max: 0.864302
Time = 0.012

smoothSolver:  Solving for Ux, Initial residual = 0.00968512, Final residual = 6.51776e-07, No Iterations 3
smoothSolver:  Solving for Uy, Initial residual = 0.0104601, Final residual = 8.72147e-07, No Iterations 3
DICPCG:  Solving for p, Initial residual = 0.0118129, Final residual = 8.85839e-07, No Iterations 182
DICPCG:  Solving for p, Initial residual = 8.83239e-07, Final residual = 8.83239e-07, No Iterations 0
DICPCG:  Solving for p, Initial residual = 8.83239e-07, Final residual = 8.83239e-07, No Iterations 0
time step continuity errors : sum local = 4.34872e-11, global = 3.2047e-20, cumulative = -3.07768e-21
DICPCG:  Solving for p, Initial residual = 0.00356761, Final residual = 9.3453e-07, No Iterations 175
DICPCG:  Solving for p, Initial residual = 9.35234e-07, Final residual = 9.35234e-07, No Iterations 0
DICPCG:  Solving for p, Initial residual = 9.35234e-07, Final residual = 9.35234e-07, No Iterations 0
time step continuity errors : sum local = 4.59779e-11, global = 2.53598e-20, cumulative = 2.22822e-20
ExecutionTime = 15.31 s  ClockTime = 16 s

Courant Number mean: 0.029359 max: 0.867007
Time = 0.0125

smoothSolver:  Solving for Ux, Initial residual = 0.00928643, Final residual = 6.25921e-07, No Iterations 3
smoothSolver:  Solving for Uy, Initial residual = 0.0100369, Final residual = 8.35694e-07, No Iterations 3
DICPCG:  Solving for p, Initial residual = 0.0115376, Final residual = 8.5055e-07, No Iterations 182
DICPCG:  Solving for p, Initial residual = 8.48213e-07, Final residual = 8.48213e-07, No Iterations 0
DICPCG:  Solving for p, Initial residual = 8.48213e-07, Final residual = 8.48213e-07, No Iterations 0
time step continuity errors : sum local = 4.19303e-11, global = -1.1999e-20, cumulative = 1.02831e-20
DICPCG:  Solving for p, Initial residual = 0.00349387, Final residual = 9.53259e-07, No Iterations 174
DICPCG:  Solving for p, Initial residual = 9.53902e-07, Final residual = 9.53902e-07, No Iterations 0
DICPCG:  Solving for p, Initial residual = 9.53902e-07, Final residual = 9.53902e-07, No Iterations 0
time step continuity errors : sum local = 4.70914e-11, global = 2.06393e-20, cumulative = 3.09224e-20
ExecutionTime = 15.78 s  ClockTime = 17 s

Courant Number mean: 0.0299003 max: 0.86955
Time = 0.013

smoothSolver:  Solving for Ux, Initial residual = 0.00892156, Final residual = 6.02012e-07, No Iterations 3
smoothSolver:  Solving for Uy, Initial residual = 0.00964757, Final residual = 8.02117e-07, No Iterations 3
DICPCG:  Solving for p, Initial residual = 0.0112939, Final residual = 9.91391e-07, No Iterations 181
DICPCG:  Solving for p, Initial residual = 9.88836e-07, Final residual = 9.88836e-07, No Iterations 0
DICPCG:  Solving for p, Initial residual = 9.88836e-07, Final residual = 9.88836e-07, No Iterations 0
time step continuity errors : sum local = 4.90689e-11, global = -3.84488e-21, cumulative = 2.70775e-20
DICPCG:  Solving for p, Initial residual = 0.00342085, Final residual = 9.33487e-07, No Iterations 174
DICPCG:  Solving for p, Initial residual = 9.34091e-07, Final residual = 9.34091e-07, No Iterations 0
DICPCG:  Solving for p, Initial residual = 9.34091e-07, Final residual = 9.34091e-07, No Iterations 0
time step continuity errors : sum local = 4.62924e-11, global = -3.69287e-21, cumulative = 2.33846e-20
ExecutionTime = 16.25 s  ClockTime = 17 s

Courant Number mean: 0.0304276 max: 0.871946
Time = 0.0135

smoothSolver:  Solving for Ux, Initial residual = 0.00858516, Final residual = 5.79882e-07, No Iterations 3
smoothSolver:  Solving for Uy, Initial residual = 0.0092879, Final residual = 7.71134e-07, No Iterations 3
DICPCG:  Solving for p, Initial residual = 0.0110484, Final residual = 9.58911e-07, No Iterations 181
DICPCG:  Solving for p, Initial residual = 9.56655e-07, Final residual = 9.56655e-07, No Iterations 0
DICPCG:  Solving for p, Initial residual = 9.56655e-07, Final residual = 9.56655e-07, No Iterations 0
time step continuity errors : sum local = 4.76348e-11, global = 7.02868e-21, cumulative = 3.04133e-20
DICPCG:  Solving for p, Initial residual = 0.00336248, Final residual = 9.94777e-07, No Iterations 173
DICPCG:  Solving for p, Initial residual = 9.95337e-07, Final residual = 9.95337e-07, No Iterations 0
DICPCG:  Solving for p, Initial residual = 9.95337e-07, Final residual = 9.95337e-07, No Iterations 0
time step continuity errors : sum local = 4.95051e-11, global = -2.32025e-20, cumulative = 7.21081e-21
ExecutionTime = 16.73 s  ClockTime = 18 s

Courant Number mean: 0.0309418 max: 0.87421
Time = 0.014

smoothSolver:  Solving for Ux, Initial residual = 0.00827329, Final residual = 5.59352e-07, No Iterations 3
smoothSolver:  Solving for Uy, Initial residual = 0.0089551, Final residual = 7.42415e-07, No Iterations 3
DICPCG:  Solving for p, Initial residual = 0.0107899, Final residual = 9.34491e-07, No Iterations 181
DICPCG:  Solving for p, Initial residual = 9.32422e-07, Final residual = 9.32422e-07, No Iterations 0
DICPCG:  Solving for p, Initial residual = 9.32422e-07, Final residual = 9.32422e-07, No Iterations 0
time step continuity errors : sum local = 4.65822e-11, global = 3.07288e-20, cumulative = 3.79396e-20
DICPCG:  Solving for p, Initial residual = 0.00329844, Final residual = 9.37489e-07, No Iterations 173
DICPCG:  Solving for p, Initial residual = 9.38005e-07, Final residual = 9.38005e-07, No Iterations 0
DICPCG:  Solving for p, Initial residual = 9.38005e-07, Final residual = 9.38005e-07, No Iterations 0
time step continuity errors : sum local = 4.68096e-11, global = 2.0923e-20, cumulative = 5.88625e-20
ExecutionTime = 17.19 s  ClockTime = 18 s

Courant Number mean: 0.0314444 max: 0.876352
Time = 0.0145

smoothSolver:  Solving for Ux, Initial residual = 0.00798283, Final residual = 5.40323e-07, No Iterations 3
smoothSolver:  Solving for Uy, Initial residual = 0.00864609, Final residual = 7.15732e-07, No Iterations 3
DICPCG:  Solving for p, Initial residual = 0.0105458, Final residual = 9.04212e-07, No Iterations 181
DICPCG:  Solving for p, Initial residual = 9.02313e-07, Final residual = 9.02313e-07, No Iterations 0
DICPCG:  Solving for p, Initial residual = 9.02313e-07, Final residual = 9.02313e-07, No Iterations 0
time step continuity errors : sum local = 4.52183e-11, global = 1.69834e-20, cumulative = 7.58459e-20
DICPCG:  Solving for p, Initial residual = 0.00323319, Final residual = 9.00401e-07, No Iterations 173
DICPCG:  Solving for p, Initial residual = 9.00882e-07, Final residual = 9.00882e-07, No Iterations 0
DICPCG:  Solving for p, Initial residual = 9.00882e-07, Final residual = 9.00882e-07, No Iterations 0
time step continuity errors : sum local = 4.50985e-11, global = -4.26501e-20, cumulative = 3.31958e-20
ExecutionTime = 17.67 s  ClockTime = 19 s

Courant Number mean: 0.0319388 max: 0.878383
Time = 0.015

smoothSolver:  Solving for Ux, Initial residual = 0.00771117, Final residual = 5.22521e-07, No Iterations 3
smoothSolver:  Solving for Uy, Initial residual = 0.00835801, Final residual = 6.90905e-07, No Iterations 3
DICPCG:  Solving for p, Initial residual = 0.010315, Final residual = 8.86639e-07, No Iterations 181
DICPCG:  Solving for p, Initial residual = 8.84691e-07, Final residual = 8.84691e-07, No Iterations 0
DICPCG:  Solving for p, Initial residual = 8.84691e-07, Final residual = 8.84691e-07, No Iterations 0
time step continuity errors : sum local = 4.44835e-11, global = -1.88735e-20, cumulative = 1.43224e-20
DICPCG:  Solving for p, Initial residual = 0.00318193, Final residual = 9.99908e-07, No Iterations 172
DICPCG:  Solving for p, Initial residual = 1.00051e-06, Final residual = 6.1666e-07, No Iterations 1
DICPCG:  Solving for p, Initial residual = 6.1666e-07, Final residual = 6.1666e-07, No Iterations 0
time step continuity errors : sum local = 3.09692e-11, global = 4.98285e-21, cumulative = 1.93052e-20
ExecutionTime = 18.14 s  ClockTime = 19 s

Courant Number mean: 0.032424 max: 0.880314
Time = 0.0155

smoothSolver:  Solving for Ux, Initial residual = 0.00745622, Final residual = 5.05801e-07, No Iterations 3
smoothSolver:  Solving for Uy, Initial residual = 0.00808956, Final residual = 6.67731e-07, No Iterations 3
DICPCG:  Solving for p, Initial residual = 0.0101392, Final residual = 8.6539e-07, No Iterations 181
DICPCG:  Solving for p, Initial residual = 8.63435e-07, Final residual = 8.63435e-07, No Iterations 0
DICPCG:  Solving for p, Initial residual = 8.63435e-07, Final residual = 8.63435e-07, No Iterations 0
time step continuity errors : sum local = 4.35593e-11, global = 1.68747e-20, cumulative = 3.61799e-20
DICPCG:  Solving for p, Initial residual = 0.00313352, Final residual = 9.52983e-07, No Iterations 172
DICPCG:  Solving for p, Initial residual = 9.53562e-07, Final residual = 9.53562e-07, No Iterations 0
DICPCG:  Solving for p, Initial residual = 9.53562e-07, Final residual = 9.53562e-07, No Iterations 0
time step continuity errors : sum local = 4.80478e-11, global = -3.25682e-20, cumulative = 3.61175e-21
ExecutionTime = 18.62 s  ClockTime = 20 s

Courant Number mean: 0.0328998 max: 0.88215
Time = 0.016

smoothSolver:  Solving for Ux, Initial residual = 0.0072173, Final residual = 4.90083e-07, No Iterations 3
smoothSolver:  Solving for Uy, Initial residual = 0.0078385, Final residual = 6.46051e-07, No Iterations 3
DICPCG:  Solving for p, Initial residual = 0.00999728, Final residual = 9.96216e-07, No Iterations 180
DICPCG:  Solving for p, Initial residual = 9.94053e-07, Final residual = 9.94053e-07, No Iterations 0
DICPCG:  Solving for p, Initial residual = 9.94053e-07, Final residual = 9.94053e-07, No Iterations 0
time step continuity errors : sum local = 5.03064e-11, global = -6.95163e-20, cumulative = -6.59046e-20
DICPCG:  Solving for p, Initial residual = 0.00308176, Final residual = 9.11328e-07, No Iterations 172
DICPCG:  Solving for p, Initial residual = 9.11845e-07, Final residual = 9.11845e-07, No Iterations 0
DICPCG:  Solving for p, Initial residual = 9.11845e-07, Final residual = 9.11845e-07, No Iterations 0
time step continuity errors : sum local = 4.60939e-11, global = 1.28469e-20, cumulative = -5.30577e-20
ExecutionTime = 19.08 s  ClockTime = 20 s

Courant Number mean: 0.0333666 max: 0.883901
Time = 0.0165

smoothSolver:  Solving for Ux, Initial residual = 0.00699412, Final residual = 4.75302e-07, No Iterations 3
smoothSolver:  Solving for Uy, Initial residual = 0.00760319, Final residual = 6.25757e-07, No Iterations 3
DICPCG:  Solving for p, Initial residual = 0.0098639, Final residual = 9.74186e-07, No Iterations 180
DICPCG:  Solving for p, Initial residual = 9.72057e-07, Final residual = 9.72057e-07, No Iterations 0
DICPCG:  Solving for p, Initial residual = 9.72057e-07, Final residual = 9.72057e-07, No Iterations 0
time step continuity errors : sum local = 4.93534e-11, global = 2.69084e-20, cumulative = -2.61494e-20
DICPCG:  Solving for p, Initial residual = 0.0030288, Final residual = 9.19242e-07, No Iterations 172
DICPCG:  Solving for p, Initial residual = 9.19758e-07, Final residual = 9.19758e-07, No Iterations 0
DICPCG:  Solving for p, Initial residual = 9.19758e-07, Final residual = 9.19758e-07, No Iterations 0
time step continuity errors : sum local = 4.66456e-11, global = -1.55758e-21, cumulative = -2.77069e-20
ExecutionTime = 19.54 s  ClockTime = 21 s

Courant Number mean: 0.0338242 max: 0.885572
Time = 0.017

smoothSolver:  Solving for Ux, Initial residual = 0.00678433, Final residual = 4.6144e-07, No Iterations 3
smoothSolver:  Solving for Uy, Initial residual = 0.00738243, Final residual = 6.06693e-07, No Iterations 3
DICPCG:  Solving for p, Initial residual = 0.0097239, Final residual = 9.51744e-07, No Iterations 180
DICPCG:  Solving for p, Initial residual = 9.49742e-07, Final residual = 9.49742e-07, No Iterations 0
DICPCG:  Solving for p, Initial residual = 9.49742e-07, Final residual = 9.49742e-07, No Iterations 0
time step continuity errors : sum local = 4.83697e-11, global = 3.98962e-20, cumulative = 1.21892e-20
DICPCG:  Solving for p, Initial residual = 0.00298575, Final residual = 8.97598e-07, No Iterations 172
DICPCG:  Solving for p, Initial residual = 8.9806e-07, Final residual = 8.9806e-07, No Iterations 0
DICPCG:  Solving for p, Initial residual = 8.9806e-07, Final residual = 8.9806e-07, No Iterations 0
time step continuity errors : sum local = 4.56906e-11, global = -3.37997e-20, cumulative = -2.16105e-20
ExecutionTime = 20.02 s  ClockTime = 21 s

Courant Number mean: 0.0342728 max: 0.88717
Time = 0.0175

smoothSolver:  Solving for Ux, Initial residual = 0.00658682, Final residual = 4.48642e-07, No Iterations 3
smoothSolver:  Solving for Uy, Initial residual = 0.0071749, Final residual = 5.88759e-07, No Iterations 3
DICPCG:  Solving for p, Initial residual = 0.00959189, Final residual = 9.3849e-07, No Iterations 180
DICPCG:  Solving for p, Initial residual = 9.36711e-07, Final residual = 9.36711e-07, No Iterations 0
DICPCG:  Solving for p, Initial residual = 9.36711e-07, Final residual = 9.36711e-07, No Iterations 0
time step continuity errors : sum local = 4.78384e-11, global = 1.37637e-20, cumulative = -7.84677e-21
DICPCG:  Solving for p, Initial residual = 0.00294699, Final residual = 9.77413e-07, No Iterations 171
DICPCG:  Solving for p, Initial residual = 9.77846e-07, Final residual = 9.77846e-07, No Iterations 0
DICPCG:  Solving for p, Initial residual = 9.77846e-07, Final residual = 9.77846e-07, No Iterations 0
time step continuity errors : sum local = 4.98951e-11, global = 4.34185e-20, cumulative = 3.55717e-20
ExecutionTime = 20.48 s  ClockTime = 22 s

Courant Number mean: 0.0347129 max: 0.888699
Time = 0.018

smoothSolver:  Solving for Ux, Initial residual = 0.00640043, Final residual = 4.36697e-07, No Iterations 3
smoothSolver:  Solving for Uy, Initial residual = 0.00697938, Final residual = 5.71874e-07, No Iterations 3
DICPCG:  Solving for p, Initial residual = 0.00945218, Final residual = 9.19468e-07, No Iterations 180
DICPCG:  Solving for p, Initial residual = 9.17801e-07, Final residual = 9.17801e-07, No Iterations 0
DICPCG:  Solving for p, Initial residual = 9.17801e-07, Final residual = 9.17801e-07, No Iterations 0
time step continuity errors : sum local = 4.70017e-11, global = -1.85137e-21, cumulative = 3.37204e-20
DICPCG:  Solving for p, Initial residual = 0.00291316, Final residual = 9.63555e-07, No Iterations 171
DICPCG:  Solving for p, Initial residual = 9.64012e-07, Final residual = 9.64012e-07, No Iterations 0
DICPCG:  Solving for p, Initial residual = 9.64012e-07, Final residual = 9.64012e-07, No Iterations 0
time step continuity errors : sum local = 4.93214e-11, global = -1.43817e-20, cumulative = 1.93386e-20
ExecutionTime = 20.96 s  ClockTime = 22 s

Courant Number mean: 0.0351445 max: 0.890164
Time = 0.0185

smoothSolver:  Solving for Ux, Initial residual = 0.00622406, Final residual = 4.25448e-07, No Iterations 3
smoothSolver:  Solving for Uy, Initial residual = 0.00679496, Final residual = 5.55926e-07, No Iterations 3
DICPCG:  Solving for p, Initial residual = 0.00930232, Final residual = 9.0097e-07, No Iterations 180
DICPCG:  Solving for p, Initial residual = 8.99369e-07, Final residual = 8.99369e-07, No Iterations 0
DICPCG:  Solving for p, Initial residual = 8.99369e-07, Final residual = 8.99369e-07, No Iterations 0
time step continuity errors : sum local = 4.61782e-11, global = 9.47457e-21, cumulative = 2.88132e-20
DICPCG:  Solving for p, Initial residual = 0.00288493, Final residual = 9.35363e-07, No Iterations 171
DICPCG:  Solving for p, Initial residual = 9.35771e-07, Final residual = 9.35771e-07, No Iterations 0
DICPCG:  Solving for p, Initial residual = 9.35771e-07, Final residual = 9.35771e-07, No Iterations 0
time step continuity errors : sum local = 4.80054e-11, global = -6.057e-21, cumulative = 2.27562e-20
ExecutionTime = 21.42 s  ClockTime = 23 s

Courant Number mean: 0.0355679 max: 0.89157
Time = 0.019

smoothSolver:  Solving for Ux, Initial residual = 0.00605697, Final residual = 4.14783e-07, No Iterations 3
smoothSolver:  Solving for Uy, Initial residual = 0.00662074, Final residual = 5.40861e-07, No Iterations 3
DICPCG:  Solving for p, Initial residual = 0.00915301, Final residual = 8.83682e-07, No Iterations 180
DICPCG:  Solving for p, Initial residual = 8.82196e-07, Final residual = 8.82196e-07, No Iterations 0
DICPCG:  Solving for p, Initial residual = 8.82196e-07, Final residual = 8.82196e-07, No Iterations 0
time step continuity errors : sum local = 4.54097e-11, global = 2.44271e-20, cumulative = 4.71833e-20
DICPCG:  Solving for p, Initial residual = 0.00285171, Final residual = 9.12173e-07, No Iterations 171
DICPCG:  Solving for p, Initial residual = 9.12571e-07, Final residual = 9.12571e-07, No Iterations 0
DICPCG:  Solving for p, Initial residual = 9.12571e-07, Final residual = 9.12571e-07, No Iterations 0
time step continuity errors : sum local = 4.69323e-11, global = 3.51776e-20, cumulative = 8.2361e-20
ExecutionTime = 21.88 s  ClockTime = 23 s

Courant Number mean: 0.0359836 max: 0.892921
Time = 0.0195

smoothSolver:  Solving for Ux, Initial residual = 0.00589836, Final residual = 4.04651e-07, No Iterations 3
smoothSolver:  Solving for Uy, Initial residual = 0.00645568, Final residual = 5.26605e-07, No Iterations 3
DICPCG:  Solving for p, Initial residual = 0.00901737, Final residual = 8.66165e-07, No Iterations 180
DICPCG:  Solving for p, Initial residual = 8.64715e-07, Final residual = 8.64715e-07, No Iterations 0
DICPCG:  Solving for p, Initial residual = 8.64715e-07, Final residual = 8.64715e-07, No Iterations 0
time step continuity errors : sum local = 4.46205e-11, global = 7.35264e-22, cumulative = 8.30962e-20
DICPCG:  Solving for p, Initial residual = 0.00281776, Final residual = 8.97117e-07, No Iterations 171
DICPCG:  Solving for p, Initial residual = 8.97511e-07, Final residual = 8.97511e-07, No Iterations 0
DICPCG:  Solving for p, Initial residual = 8.97511e-07, Final residual = 8.97511e-07, No Iterations 0
time step continuity errors : sum local = 4.62722e-11, global = -4.95842e-20, cumulative = 3.3512e-20
ExecutionTime = 22.35 s  ClockTime = 24 s

Courant Number mean: 0.0363938 max: 0.894219
Time = 0.02

smoothSolver:  Solving for Ux, Initial residual = 0.00574833, Final residual = 3.95005e-07, No Iterations 3
smoothSolver:  Solving for Uy, Initial residual = 0.00629945, Final residual = 5.13077e-07, No Iterations 3
DICPCG:  Solving for p, Initial residual = 0.00892168, Final residual = 9.88048e-07, No Iterations 179
DICPCG:  Solving for p, Initial residual = 9.86436e-07, Final residual = 9.86436e-07, No Iterations 0
DICPCG:  Solving for p, Initial residual = 9.86436e-07, Final residual = 9.86436e-07, No Iterations 0
time step continuity errors : sum local = 5.10233e-11, global = -2.21906e-20, cumulative = 1.13214e-20
DICPCG:  Solving for p, Initial residual = 0.00278772, Final residual = 8.73841e-07, No Iterations 171
DICPCG:  Solving for p, Initial residual = 8.74187e-07, Final residual = 8.74187e-07, No Iterations 0
DICPCG:  Solving for p, Initial residual = 8.74187e-07, Final residual = 8.74187e-07, No Iterations 0
time step continuity errors : sum local = 4.51815e-11, global = -2.07097e-20, cumulative = -9.38831e-21
ExecutionTime = 22.81 s  ClockTime = 24 s

Courant Number mean: 0.0367987 max: 0.895469
Time = 0.0205

smoothSolver:  Solving for Ux, Initial residual = 0.00560568, Final residual = 3.85788e-07, No Iterations 3
smoothSolver:  Solving for Uy, Initial residual = 0.00615141, Final residual = 5.00242e-07, No Iterations 3
DICPCG:  Solving for p, Initial residual = 0.00882286, Final residual = 9.48376e-07, No Iterations 179
DICPCG:  Solving for p, Initial residual = 9.4689e-07, Final residual = 9.4689e-07, No Iterations 0
DICPCG:  Solving for p, Initial residual = 9.4689e-07, Final residual = 9.4689e-07, No Iterations 0
time step continuity errors : sum local = 4.90929e-11, global = 3.51212e-21, cumulative = -5.8762e-21
DICPCG:  Solving for p, Initial residual = 0.0027558, Final residual = 9.88193e-07, No Iterations 170
DICPCG:  Solving for p, Initial residual = 9.88554e-07, Final residual = 9.88554e-07, No Iterations 0
DICPCG:  Solving for p, Initial residual = 9.88554e-07, Final residual = 9.88554e-07, No Iterations 0
time step continuity errors : sum local = 5.12155e-11, global = -1.62614e-20, cumulative = -2.21376e-20
ExecutionTime = 23.65 s  ClockTime = 25 s

Courant Number mean: 0.0371978 max: 0.896673
Time = 0.021

smoothSolver:  Solving for Ux, Initial residual = 0.00546992, Final residual = 3.76933e-07, No Iterations 3
smoothSolver:  Solving for Uy, Initial residual = 0.00601047, Final residual = 4.88063e-07, No Iterations 3
DICPCG:  Solving for p, Initial residual = 0.00872237, Final residual = 9.29373e-07, No Iterations 179
DICPCG:  Solving for p, Initial residual = 9.27893e-07, Final residual = 9.27893e-07, No Iterations 0
DICPCG:  Solving for p, Initial residual = 9.27893e-07, Final residual = 9.27893e-07, No Iterations 0
time step continuity errors : sum local = 4.82264e-11, global = -7.01655e-21, cumulative = -2.91541e-20
DICPCG:  Solving for p, Initial residual = 0.00272331, Final residual = 9.18777e-07, No Iterations 170
DICPCG:  Solving for p, Initial residual = 9.19191e-07, Final residual = 9.19191e-07, No Iterations 0
DICPCG:  Solving for p, Initial residual = 9.19191e-07, Final residual = 9.19191e-07, No Iterations 0
time step continuity errors : sum local = 4.77311e-11, global = -1.69987e-21, cumulative = -3.0854e-20
ExecutionTime = 24.12 s  ClockTime = 26 s

Courant Number mean: 0.0375911 max: 0.897834
Time = 0.0215

smoothSolver:  Solving for Ux, Initial residual = 0.00534046, Final residual = 3.68426e-07, No Iterations 3
smoothSolver:  Solving for Uy, Initial residual = 0.00587662, Final residual = 4.76472e-07, No Iterations 3
DICPCG:  Solving for p, Initial residual = 0.00862856, Final residual = 9.00165e-07, No Iterations 179
DICPCG:  Solving for p, Initial residual = 8.98634e-07, Final residual = 8.98634e-07, No Iterations 0
DICPCG:  Solving for p, Initial residual = 8.98634e-07, Final residual = 8.98634e-07, No Iterations 0
time step continuity errors : sum local = 4.6823e-11, global = 1.7802e-20, cumulative = -1.3052e-20
DICPCG:  Solving for p, Initial residual = 0.00268876, Final residual = 9.40106e-07, No Iterations 170
DICPCG:  Solving for p, Initial residual = 9.40534e-07, Final residual = 9.40534e-07, No Iterations 0
DICPCG:  Solving for p, Initial residual = 9.40534e-07, Final residual = 9.40534e-07, No Iterations 0
time step continuity errors : sum local = 4.89616e-11, global = 2.82677e-21, cumulative = -1.02252e-20
ExecutionTime = 24.58 s  ClockTime = 26 s

Courant Number mean: 0.0379784 max: 0.898955
Time = 0.022

smoothSolver:  Solving for Ux, Initial residual = 0.00521667, Final residual = 3.60253e-07, No Iterations 3
smoothSolver:  Solving for Uy, Initial residual = 0.00574925, Final residual = 4.65449e-07, No Iterations 3
DICPCG:  Solving for p, Initial residual = 0.00853224, Final residual = 9.98961e-07, No Iterations 178
DICPCG:  Solving for p, Initial residual = 9.97297e-07, Final residual = 9.97297e-07, No Iterations 0
DICPCG:  Solving for p, Initial residual = 9.97297e-07, Final residual = 9.97297e-07, No Iterations 0
time step continuity errors : sum local = 5.20901e-11, global = 2.95596e-20, cumulative = 1.93344e-20
DICPCG:  Solving for p, Initial residual = 0.00266551, Final residual = 9.93031e-07, No Iterations 169
DICPCG:  Solving for p, Initial residual = 9.93453e-07, Final residual = 9.93453e-07, No Iterations 0
DICPCG:  Solving for p, Initial residual = 9.93453e-07, Final residual = 9.93453e-07, No Iterations 0
time step continuity errors : sum local = 5.18452e-11, global = 1.78648e-20, cumulative = 3.71992e-20
ExecutionTime = 25.06 s  ClockTime = 26 s

Courant Number mean: 0.0383599 max: 0.900038
Time = 0.0225

smoothSolver:  Solving for Ux, Initial residual = 0.0050984, Final residual = 3.52446e-07, No Iterations 3
smoothSolver:  Solving for Uy, Initial residual = 0.00562765, Final residual = 4.54954e-07, No Iterations 3
DICPCG:  Solving for p, Initial residual = 0.00844057, Final residual = 9.77069e-07, No Iterations 178
DICPCG:  Solving for p, Initial residual = 9.75561e-07, Final residual = 9.75561e-07, No Iterations 0
DICPCG:  Solving for p, Initial residual = 9.75561e-07, Final residual = 9.75561e-07, No Iterations 0
time step continuity errors : sum local = 5.1069e-11, global = -7.27927e-21, cumulative = 2.99199e-20
DICPCG:  Solving for p, Initial residual = 0.0026399, Final residual = 9.96928e-07, No Iterations 169
DICPCG:  Solving for p, Initial residual = 9.97307e-07, Final residual = 9.97307e-07, No Iterations 0
DICPCG:  Solving for p, Initial residual = 9.97307e-07, Final residual = 9.97307e-07, No Iterations 0
time step continuity errors : sum local = 5.21678e-11, global = -8.94924e-21, cumulative = 2.09707e-20
ExecutionTime = 25.52 s  ClockTime = 27 s

Courant Number mean: 0.0387355 max: 0.901084
Time = 0.023

smoothSolver:  Solving for Ux, Initial residual = 0.00498514, Final residual = 3.44966e-07, No Iterations 3
smoothSolver:  Solving for Uy, Initial residual = 0.00551179, Final residual = 4.4493e-07, No Iterations 3
DICPCG:  Solving for p, Initial residual = 0.00834149, Final residual = 9.52448e-07, No Iterations 178
DICPCG:  Solving for p, Initial residual = 9.5104e-07, Final residual = 9.5104e-07, No Iterations 0
DICPCG:  Solving for p, Initial residual = 9.5104e-07, Final residual = 9.5104e-07, No Iterations 0
time step continuity errors : sum local = 4.98951e-11, global = 4.583e-20, cumulative = 6.68007e-20
DICPCG:  Solving for p, Initial residual = 0.00261743, Final residual = 9.78882e-07, No Iterations 169
DICPCG:  Solving for p, Initial residual = 9.79262e-07, Final residual = 9.79262e-07, No Iterations 0
DICPCG:  Solving for p, Initial residual = 9.79262e-07, Final residual = 9.79262e-07, No Iterations 0
time step continuity errors : sum local = 5.1336e-11, global = 2.70066e-21, cumulative = 6.95013e-20
ExecutionTime = 25.99 s  ClockTime = 27 s

Courant Number mean: 0.0391055 max: 0.902096
Time = 0.0235

smoothSolver:  Solving for Ux, Initial residual = 0.00487678, Final residual = 3.378e-07, No Iterations 3
smoothSolver:  Solving for Uy, Initial residual = 0.00540138, Final residual = 4.35359e-07, No Iterations 3
DICPCG:  Solving for p, Initial residual = 0.00823316, Final residual = 9.19359e-07, No Iterations 178
DICPCG:  Solving for p, Initial residual = 9.18061e-07, Final residual = 9.18061e-07, No Iterations 0
DICPCG:  Solving for p, Initial residual = 9.18061e-07, Final residual = 9.18061e-07, No Iterations 0
time step continuity errors : sum local = 4.82639e-11, global = 1.75465e-21, cumulative = 7.1256e-20
DICPCG:  Solving for p, Initial residual = 0.0025979, Final residual = 9.43658e-07, No Iterations 169
DICPCG:  Solving for p, Initial residual = 9.4398e-07, Final residual = 9.4398e-07, No Iterations 0
DICPCG:  Solving for p, Initial residual = 9.4398e-07, Final residual = 9.4398e-07, No Iterations 0
time step continuity errors : sum local = 4.95926e-11, global = 1.03268e-20, cumulative = 8.15828e-20
ExecutionTime = 26.45 s  ClockTime = 28 s

Courant Number mean: 0.0394698 max: 0.903076
Time = 0.024

smoothSolver:  Solving for Ux, Initial residual = 0.00477331, Final residual = 3.30935e-07, No Iterations 3
smoothSolver:  Solving for Uy, Initial residual = 0.00529581, Final residual = 4.26212e-07, No Iterations 3
DICPCG:  Solving for p, Initial residual = 0.00814798, Final residual = 8.87412e-07, No Iterations 178
DICPCG:  Solving for p, Initial residual = 8.86239e-07, Final residual = 8.86239e-07, No Iterations 0
DICPCG:  Solving for p, Initial residual = 8.86239e-07, Final residual = 8.86239e-07, No Iterations 0
time step continuity errors : sum local = 4.66826e-11, global = -9.83548e-21, cumulative = 7.17473e-20
DICPCG:  Solving for p, Initial residual = 0.00257715, Final residual = 9.29791e-07, No Iterations 169
DICPCG:  Solving for p, Initial residual = 9.30106e-07, Final residual = 9.30106e-07, No Iterations 0
DICPCG:  Solving for p, Initial residual = 9.30106e-07, Final residual = 9.30106e-07, No Iterations 0
time step continuity errors : sum local = 4.89601e-11, global = -1.70696e-20, cumulative = 5.46777e-20
ExecutionTime = 26.92 s  ClockTime = 28 s

Courant Number mean: 0.0398291 max: 0.904026
Time = 0.0245

smoothSolver:  Solving for Ux, Initial residual = 0.00467451, Final residual = 3.2432e-07, No Iterations 3
smoothSolver:  Solving for Uy, Initial residual = 0.00519488, Final residual = 4.17459e-07, No Iterations 3
DICPCG:  Solving for p, Initial residual = 0.00807841, Final residual = 9.94423e-07, No Iterations 177
DICPCG:  Solving for p, Initial residual = 9.93085e-07, Final residual = 9.93085e-07, No Iterations 0
DICPCG:  Solving for p, Initial residual = 9.93085e-07, Final residual = 9.93085e-07, No Iterations 0
time step continuity errors : sum local = 5.24163e-11, global = 1.1774e-20, cumulative = 6.64517e-20
DICPCG:  Solving for p, Initial residual = 0.00255635, Final residual = 9.12685e-07, No Iterations 169
DICPCG:  Solving for p, Initial residual = 9.13012e-07, Final residual = 9.13012e-07, No Iterations 0
DICPCG:  Solving for p, Initial residual = 9.13012e-07, Final residual = 9.13012e-07, No Iterations 0
time step continuity errors : sum local = 4.81554e-11, global = -2.40474e-20, cumulative = 4.24043e-20
ExecutionTime = 27.37 s  ClockTime = 29 s

Courant Number mean: 0.040183 max: 0.904946
Time = 0.025

smoothSolver:  Solving for Ux, Initial residual = 0.0045798, Final residual = 3.17936e-07, No Iterations 3
smoothSolver:  Solving for Uy, Initial residual = 0.00509827, Final residual = 4.09081e-07, No Iterations 3
DICPCG:  Solving for p, Initial residual = 0.00802007, Final residual = 9.58026e-07, No Iterations 177
DICPCG:  Solving for p, Initial residual = 9.56771e-07, Final residual = 9.56771e-07, No Iterations 0
DICPCG:  Solving for p, Initial residual = 9.56771e-07, Final residual = 9.56771e-07, No Iterations 0
time step continuity errors : sum local = 5.05959e-11, global = -2.64367e-20, cumulative = 1.59676e-20
DICPCG:  Solving for p, Initial residual = 0.00253477, Final residual = 8.94859e-07, No Iterations 169
DICPCG:  Solving for p, Initial residual = 8.95162e-07, Final residual = 8.95162e-07, No Iterations 0
DICPCG:  Solving for p, Initial residual = 8.95162e-07, Final residual = 8.95162e-07, No Iterations 0
time step continuity errors : sum local = 4.73059e-11, global = 1.73198e-21, cumulative = 1.76996e-20
ExecutionTime = 27.85 s  ClockTime = 29 s

Courant Number mean: 0.0405316 max: 0.905839
Time = 0.0255

smoothSolver:  Solving for Ux, Initial residual = 0.00448877, Final residual = 3.11774e-07, No Iterations 3
smoothSolver:  Solving for Uy, Initial residual = 0.00500565, Final residual = 4.01055e-07, No Iterations 3
DICPCG:  Solving for p, Initial residual = 0.00796348, Final residual = 9.2167e-07, No Iterations 177
DICPCG:  Solving for p, Initial residual = 9.20397e-07, Final residual = 9.20397e-07, No Iterations 0
DICPCG:  Solving for p, Initial residual = 9.20397e-07, Final residual = 9.20397e-07, No Iterations 0
time step continuity errors : sum local = 4.87741e-11, global = 3.20977e-20, cumulative = 4.97973e-20
DICPCG:  Solving for p, Initial residual = 0.00251085, Final residual = 9.76173e-07, No Iterations 168
DICPCG:  Solving for p, Initial residual = 9.76547e-07, Final residual = 9.76547e-07, No Iterations 0
DICPCG:  Solving for p, Initial residual = 9.76547e-07, Final residual = 9.76547e-07, No Iterations 0
time step continuity errors : sum local = 5.171e-11, global = 6.0681e-20, cumulative = 1.10478e-19
ExecutionTime = 28.31 s  ClockTime = 30 s

Courant Number mean: 0.0408755 max: 0.906706
Time = 0.026

smoothSolver:  Solving for Ux, Initial residual = 0.00440123, Final residual = 3.05816e-07, No Iterations 3
smoothSolver:  Solving for Uy, Initial residual = 0.00491676, Final residual = 3.93351e-07, No Iterations 3
DICPCG:  Solving for p, Initial residual = 0.00789125, Final residual = 9.97264e-07, No Iterations 176
DICPCG:  Solving for p, Initial residual = 9.95848e-07, Final residual = 9.95848e-07, No Iterations 0
DICPCG:  Solving for p, Initial residual = 9.95848e-07, Final residual = 9.95848e-07, No Iterations 0
time step continuity errors : sum local = 5.28822e-11, global = -4.51448e-20, cumulative = 6.53335e-20
DICPCG:  Solving for p, Initial residual = 0.00248785, Final residual = 9.65209e-07, No Iterations 168
DICPCG:  Solving for p, Initial residual = 9.65573e-07, Final residual = 9.65573e-07, No Iterations 0
DICPCG:  Solving for p, Initial residual = 9.65573e-07, Final residual = 9.65573e-07, No Iterations 0
time step continuity errors : sum local = 5.12359e-11, global = 6.01264e-22, cumulative = 6.59348e-20
ExecutionTime = 28.76 s  ClockTime = 30 s

Courant Number mean: 0.0412166 max: 0.907547
Time = 0.0265

smoothSolver:  Solving for Ux, Initial residual = 0.00431687, Final residual = 3.00047e-07, No Iterations 3
smoothSolver:  Solving for Uy, Initial residual = 0.00483161, Final residual = 3.8596e-07, No Iterations 3
DICPCG:  Solving for p, Initial residual = 0.0078126, Final residual = 9.68088e-07, No Iterations 176
DICPCG:  Solving for p, Initial residual = 9.66803e-07, Final residual = 9.66803e-07, No Iterations 0
DICPCG:  Solving for p, Initial residual = 9.66803e-07, Final residual = 9.66803e-07, No Iterations 0
time step continuity errors : sum local = 5.14377e-11, global = 1.39391e-20, cumulative = 7.98739e-20
DICPCG:  Solving for p, Initial residual = 0.00246945, Final residual = 9.56979e-07, No Iterations 168
DICPCG:  Solving for p, Initial residual = 9.57301e-07, Final residual = 9.57301e-07, No Iterations 0
DICPCG:  Solving for p, Initial residual = 9.57301e-07, Final residual = 9.57301e-07, No Iterations 0
time step continuity errors : sum local = 5.0898e-11, global = 2.96218e-20, cumulative = 1.09496e-19
ExecutionTime = 29.23 s  ClockTime = 31 s

Courant Number mean: 0.041554 max: 0.908365
Time = 0.027

smoothSolver:  Solving for Ux, Initial residual = 0.00423572, Final residual = 2.94492e-07, No Iterations 3
smoothSolver:  Solving for Uy, Initial residual = 0.00474966, Final residual = 3.78869e-07, No Iterations 3
DICPCG:  Solving for p, Initial residual = 0.00773938, Final residual = 9.04308e-07, No Iterations 176
DICPCG:  Solving for p, Initial residual = 9.03176e-07, Final residual = 9.03176e-07, No Iterations 0
DICPCG:  Solving for p, Initial residual = 9.03176e-07, Final residual = 9.03176e-07, No Iterations 0
time step continuity errors : sum local = 4.81408e-11, global = -3.09474e-21, cumulative = 1.06401e-19
DICPCG:  Solving for p, Initial residual = 0.0024532, Final residual = 9.4731e-07, No Iterations 168
DICPCG:  Solving for p, Initial residual = 9.47624e-07, Final residual = 9.47624e-07, No Iterations 0
DICPCG:  Solving for p, Initial residual = 9.47624e-07, Final residual = 9.47624e-07, No Iterations 0
time step continuity errors : sum local = 5.04765e-11, global = -3.88557e-20, cumulative = 6.75452e-20
ExecutionTime = 29.69 s  ClockTime = 31 s

Courant Number mean: 0.0418874 max: 0.90916
Time = 0.0275

smoothSolver:  Solving for Ux, Initial residual = 0.00415757, Final residual = 2.89175e-07, No Iterations 3
smoothSolver:  Solving for Uy, Initial residual = 0.00467096, Final residual = 3.72045e-07, No Iterations 3
DICPCG:  Solving for p, Initial residual = 0.00766451, Final residual = 8.95079e-07, No Iterations 176
DICPCG:  Solving for p, Initial residual = 8.93893e-07, Final residual = 8.93893e-07, No Iterations 0
DICPCG:  Solving for p, Initial residual = 8.93893e-07, Final residual = 8.93893e-07, No Iterations 0
time step continuity errors : sum local = 4.77409e-11, global = 1.91948e-21, cumulative = 6.94647e-20
DICPCG:  Solving for p, Initial residual = 0.00243884, Final residual = 9.88847e-07, No Iterations 167
DICPCG:  Solving for p, Initial residual = 9.89216e-07, Final residual = 9.89216e-07, No Iterations 0
DICPCG:  Solving for p, Initial residual = 9.89216e-07, Final residual = 9.89216e-07, No Iterations 0
time step continuity errors : sum local = 5.27924e-11, global = 1.41316e-20, cumulative = 8.35963e-20
ExecutionTime = 30.16 s  ClockTime = 32 s

Courant Number mean: 0.042217 max: 0.909934
Time = 0.028

smoothSolver:  Solving for Ux, Initial residual = 0.00408205, Final residual = 2.84038e-07, No Iterations 3
smoothSolver:  Solving for Uy, Initial residual = 0.00459549, Final residual = 3.65505e-07, No Iterations 3
DICPCG:  Solving for p, Initial residual = 0.00759129, Final residual = 8.87898e-07, No Iterations 176
DICPCG:  Solving for p, Initial residual = 8.86689e-07, Final residual = 8.86689e-07, No Iterations 0
DICPCG:  Solving for p, Initial residual = 8.86689e-07, Final residual = 8.86689e-07, No Iterations 0
time step continuity errors : sum local = 4.745e-11, global = 8.65426e-21, cumulative = 9.22505e-20
DICPCG:  Solving for p, Initial residual = 0.00242246, Final residual = 9.64256e-07, No Iterations 167
DICPCG:  Solving for p, Initial residual = 9.64623e-07, Final residual = 9.64623e-07, No Iterations 0
DICPCG:  Solving for p, Initial residual = 9.64623e-07, Final residual = 9.64623e-07, No Iterations 0
time step continuity errors : sum local = 5.15812e-11, global = 1.3445e-20, cumulative = 1.05696e-19
ExecutionTime = 30.61 s  ClockTime = 32 s

Courant Number mean: 0.0425427 max: 0.910687
Time = 0.0285

smoothSolver:  Solving for Ux, Initial residual = 0.00400899, Final residual = 2.79061e-07, No Iterations 3
smoothSolver:  Solving for Uy, Initial residual = 0.00452293, Final residual = 3.59218e-07, No Iterations 3
DICPCG:  Solving for p, Initial residual = 0.00753609, Final residual = 8.68395e-07, No Iterations 176
DICPCG:  Solving for p, Initial residual = 8.67232e-07, Final residual = 8.67232e-07, No Iterations 0
DICPCG:  Solving for p, Initial residual = 8.67232e-07, Final residual = 8.67232e-07, No Iterations 0
time step continuity errors : sum local = 4.6498e-11, global = 1.46725e-20, cumulative = 1.20368e-19
DICPCG:  Solving for p, Initial residual = 0.00240332, Final residual = 9.60128e-07, No Iterations 167
DICPCG:  Solving for p, Initial residual = 9.60475e-07, Final residual = 9.60475e-07, No Iterations 0
DICPCG:  Solving for p, Initial residual = 9.60475e-07, Final residual = 9.60475e-07, No Iterations 0
time step continuity errors : sum local = 5.14603e-11, global = 1.94382e-20, cumulative = 1.39806e-19
ExecutionTime = 31.08 s  ClockTime = 32 s

Courant Number mean: 0.0428645 max: 0.91142
Time = 0.029

smoothSolver:  Solving for Ux, Initial residual = 0.00393861, Final residual = 2.74237e-07, No Iterations 3
smoothSolver:  Solving for Uy, Initial residual = 0.00445313, Final residual = 3.53148e-07, No Iterations 3
DICPCG:  Solving for p, Initial residual = 0.00747974, Final residual = 9.74407e-07, No Iterations 175
DICPCG:  Solving for p, Initial residual = 9.73134e-07, Final residual = 9.73134e-07, No Iterations 0
DICPCG:  Solving for p, Initial residual = 9.73134e-07, Final residual = 9.73134e-07, No Iterations 0
time step continuity errors : sum local = 5.22751e-11, global = -1.34803e-20, cumulative = 1.26326e-19
DICPCG:  Solving for p, Initial residual = 0.00238582, Final residual = 9.49799e-07, No Iterations 167
DICPCG:  Solving for p, Initial residual = 9.5013e-07, Final residual = 9.5013e-07, No Iterations 0
DICPCG:  Solving for p, Initial residual = 9.5013e-07, Final residual = 9.5013e-07, No Iterations 0
time step continuity errors : sum local = 5.10038e-11, global = 1.57435e-20, cumulative = 1.42069e-19
ExecutionTime = 31.54 s  ClockTime = 33 s

Courant Number mean: 0.0431825 max: 0.912134
Time = 0.0295

smoothSolver:  Solving for Ux, Initial residual = 0.00387069, Final residual = 2.69561e-07, No Iterations 3
smoothSolver:  Solving for Uy, Initial residual = 0.00438602, Final residual = 3.47312e-07, No Iterations 3
DICPCG:  Solving for p, Initial residual = 0.00742295, Final residual = 9.60013e-07, No Iterations 175
DICPCG:  Solving for p, Initial residual = 9.58797e-07, Final residual = 9.58797e-07, No Iterations 0
DICPCG:  Solving for p, Initial residual = 9.58797e-07, Final residual = 9.58797e-07, No Iterations 0
time step continuity errors : sum local = 5.15998e-11, global = 1.51806e-20, cumulative = 1.5725e-19
DICPCG:  Solving for p, Initial residual = 0.00236914, Final residual = 9.28546e-07, No Iterations 167
DICPCG:  Solving for p, Initial residual = 9.28851e-07, Final residual = 9.28851e-07, No Iterations 0
DICPCG:  Solving for p, Initial residual = 9.28851e-07, Final residual = 9.28851e-07, No Iterations 0
time step continuity errors : sum local = 4.99554e-11, global = -5.14884e-22, cumulative = 1.56735e-19
ExecutionTime = 32.01 s  ClockTime = 33 s

Courant Number mean: 0.0434966 max: 0.91299
Time = 0.03

smoothSolver:  Solving for Ux, Initial residual = 0.00380535, Final residual = 2.6503e-07, No Iterations 3
smoothSolver:  Solving for Uy, Initial residual = 0.00432122, Final residual = 3.41683e-07, No Iterations 3
DICPCG:  Solving for p, Initial residual = 0.00737468, Final residual = 9.88123e-07, No Iterations 175
DICPCG:  Solving for p, Initial residual = 9.8697e-07, Final residual = 9.8697e-07, No Iterations 0
DICPCG:  Solving for p, Initial residual = 9.8697e-07, Final residual = 9.8697e-07, No Iterations 0
time step continuity errors : sum local = 5.32054e-11, global = -3.23904e-21, cumulative = 1.53496e-19
DICPCG:  Solving for p, Initial residual = 0.00235105, Final residual = 8.88746e-07, No Iterations 167
DICPCG:  Solving for p, Initial residual = 8.89006e-07, Final residual = 8.89006e-07, No Iterations 0
DICPCG:  Solving for p, Initial residual = 8.89006e-07, Final residual = 8.89006e-07, No Iterations 0
time step continuity errors : sum local = 4.78963e-11, global = -3.41492e-20, cumulative = 1.19347e-19
ExecutionTime = 32.46 s  ClockTime = 34 s

Courant Number mean: 0.043807 max: 0.913837
Time = 0.0305

smoothSolver:  Solving for Ux, Initial residual = 0.00374247, Final residual = 2.60641e-07, No Iterations 3
smoothSolver:  Solving for Uy, Initial residual = 0.00425861, Final residual = 3.36243e-07, No Iterations 3
DICPCG:  Solving for p, Initial residual = 0.00732336, Final residual = 9.81081e-07, No Iterations 175
DICPCG:  Solving for p, Initial residual = 9.79991e-07, Final residual = 9.79991e-07, No Iterations 0
DICPCG:  Solving for p, Initial residual = 9.79991e-07, Final residual = 9.79991e-07, No Iterations 0
time step continuity errors : sum local = 5.29157e-11, global = -1.10626e-20, cumulative = 1.08284e-19
DICPCG:  Solving for p, Initial residual = 0.00233443, Final residual = 9.77567e-07, No Iterations 166
DICPCG:  Solving for p, Initial residual = 9.77866e-07, Final residual = 9.77866e-07, No Iterations 0
DICPCG:  Solving for p, Initial residual = 9.77866e-07, Final residual = 9.77866e-07, No Iterations 0
time step continuity errors : sum local = 5.27687e-11, global = 5.23607e-21, cumulative = 1.1352e-19
ExecutionTime = 33.44 s  ClockTime = 35 s

Courant Number mean: 0.0441137 max: 0.914662
Time = 0.031

smoothSolver:  Solving for Ux, Initial residual = 0.00368172, Final residual = 2.56418e-07, No Iterations 3
smoothSolver:  Solving for Uy, Initial residual = 0.00419836, Final residual = 3.31003e-07, No Iterations 3
DICPCG:  Solving for p, Initial residual = 0.00726533, Final residual = 9.73435e-07, No Iterations 175
DICPCG:  Solving for p, Initial residual = 9.72296e-07, Final residual = 9.72296e-07, No Iterations 0
DICPCG:  Solving for p, Initial residual = 9.72296e-07, Final residual = 9.72296e-07, No Iterations 0
time step continuity errors : sum local = 5.25912e-11, global = 2.24194e-21, cumulative = 1.15762e-19
DICPCG:  Solving for p, Initial residual = 0.00232012, Final residual = 9.54205e-07, No Iterations 166
DICPCG:  Solving for p, Initial residual = 9.54527e-07, Final residual = 9.54527e-07, No Iterations 0
DICPCG:  Solving for p, Initial residual = 9.54527e-07, Final residual = 9.54527e-07, No Iterations 0
time step continuity errors : sum local = 5.15953e-11, global = 1.1643e-20, cumulative = 1.27405e-19
ExecutionTime = 33.91 s  ClockTime = 36 s

Courant Number mean: 0.0444171 max: 0.915466
Time = 0.0315

smoothSolver:  Solving for Ux, Initial residual = 0.00362289, Final residual = 2.52321e-07, No Iterations 3
smoothSolver:  Solving for Uy, Initial residual = 0.00413993, Final residual = 3.25939e-07, No Iterations 3
DICPCG:  Solving for p, Initial residual = 0.00720002, Final residual = 9.64362e-07, No Iterations 175
DICPCG:  Solving for p, Initial residual = 9.632e-07, Final residual = 9.632e-07, No Iterations 0
DICPCG:  Solving for p, Initial residual = 9.632e-07, Final residual = 9.632e-07, No Iterations 0
time step continuity errors : sum local = 5.21899e-11, global = 7.7197e-21, cumulative = 1.35125e-19
DICPCG:  Solving for p, Initial residual = 0.00230563, Final residual = 9.68059e-07, No Iterations 166
DICPCG:  Solving for p, Initial residual = 9.6839e-07, Final residual = 9.6839e-07, No Iterations 0
DICPCG:  Solving for p, Initial residual = 9.6839e-07, Final residual = 9.6839e-07, No Iterations 0
time step continuity errors : sum local = 5.24353e-11, global = 1.0892e-20, cumulative = 1.46017e-19
ExecutionTime = 34.36 s  ClockTime = 36 s

Courant Number mean: 0.044717 max: 0.91625
Time = 0.032

smoothSolver:  Solving for Ux, Initial residual = 0.00356568, Final residual = 2.48333e-07, No Iterations 3
smoothSolver:  Solving for Uy, Initial residual = 0.00408369, Final residual = 3.21043e-07, No Iterations 3
DICPCG:  Solving for p, Initial residual = 0.00714139, Final residual = 9.57204e-07, No Iterations 175
DICPCG:  Solving for p, Initial residual = 9.55959e-07, Final residual = 9.55959e-07, No Iterations 0
DICPCG:  Solving for p, Initial residual = 9.55959e-07, Final residual = 9.55959e-07, No Iterations 0
time step continuity errors : sum local = 5.18972e-11, global = 8.75174e-21, cumulative = 1.54769e-19
DICPCG:  Solving for p, Initial residual = 0.00229173, Final residual = 9.86506e-07, No Iterations 165
DICPCG:  Solving for p, Initial residual = 9.8687e-07, Final residual = 9.8687e-07, No Iterations 0
DICPCG:  Solving for p, Initial residual = 9.8687e-07, Final residual = 9.8687e-07, No Iterations 0
time step continuity errors : sum local = 5.35358e-11, global = 2.0705e-20, cumulative = 1.75474e-19
ExecutionTime = 34.83 s  ClockTime = 36 s

Courant Number mean: 0.0450136 max: 0.917013
Time = 0.0325

smoothSolver:  Solving for Ux, Initial residual = 0.00351004, Final residual = 2.44473e-07, No Iterations 3
smoothSolver:  Solving for Uy, Initial residual = 0.00402941, Final residual = 3.16329e-07, No Iterations 3
DICPCG:  Solving for p, Initial residual = 0.00708816, Final residual = 9.48155e-07, No Iterations 175
DICPCG:  Solving for p, Initial residual = 9.46964e-07, Final residual = 9.46964e-07, No Iterations 0
DICPCG:  Solving for p, Initial residual = 9.46964e-07, Final residual = 9.46964e-07, No Iterations 0
time step continuity errors : sum local = 5.15003e-11, global = -8.71243e-21, cumulative = 1.66761e-19
DICPCG:  Solving for p, Initial residual = 0.00227873, Final residual = 9.8332e-07, No Iterations 165
DICPCG:  Solving for p, Initial residual = 9.83645e-07, Final residual = 9.83645e-07, No Iterations 0
DICPCG:  Solving for p, Initial residual = 9.83645e-07, Final residual = 9.83645e-07, No Iterations 0
time step continuity errors : sum local = 5.34598e-11, global = 1.08075e-20, cumulative = 1.77569e-19
ExecutionTime = 35.29 s  ClockTime = 37 s

Courant Number mean: 0.0453067 max: 0.917765
Time = 0.033

smoothSolver:  Solving for Ux, Initial residual = 0.00345587, Final residual = 2.40729e-07, No Iterations 3
smoothSolver:  Solving for Uy, Initial residual = 0.00397677, Final residual = 3.11765e-07, No Iterations 3
DICPCG:  Solving for p, Initial residual = 0.00704439, Final residual = 9.38306e-07, No Iterations 175
DICPCG:  Solving for p, Initial residual = 9.37229e-07, Final residual = 9.37229e-07, No Iterations 0
DICPCG:  Solving for p, Initial residual = 9.37229e-07, Final residual = 9.37229e-07, No Iterations 0
time step continuity errors : sum local = 5.10544e-11, global = 3.24751e-20, cumulative = 2.10044e-19
DICPCG:  Solving for p, Initial residual = 0.00226472, Final residual = 9.59316e-07, No Iterations 165
DICPCG:  Solving for p, Initial residual = 9.59601e-07, Final residual = 9.59601e-07, No Iterations 0
DICPCG:  Solving for p, Initial residual = 9.59601e-07, Final residual = 9.59601e-07, No Iterations 0
time step continuity errors : sum local = 5.2242e-11, global = 2.35611e-20, cumulative = 2.33605e-19
ExecutionTime = 35.75 s  ClockTime = 37 s

Courant Number mean: 0.0455964 max: 0.918506
Time = 0.0335

smoothSolver:  Solving for Ux, Initial residual = 0.00340376, Final residual = 2.37094e-07, No Iterations 3
smoothSolver:  Solving for Uy, Initial residual = 0.00392612, Final residual = 3.07363e-07, No Iterations 3
DICPCG:  Solving for p, Initial residual = 0.00700003, Final residual = 9.32594e-07, No Iterations 175
DICPCG:  Solving for p, Initial residual = 9.31554e-07, Final residual = 9.31554e-07, No Iterations 0
DICPCG:  Solving for p, Initial residual = 9.31554e-07, Final residual = 9.31554e-07, No Iterations 0
time step continuity errors : sum local = 5.08285e-11, global = 4.79085e-21, cumulative = 2.38396e-19
DICPCG:  Solving for p, Initial residual = 0.00224843, Final residual = 9.77338e-07, No Iterations 164
DICPCG:  Solving for p, Initial residual = 9.77646e-07, Final residual = 9.77646e-07, No Iterations 0
DICPCG:  Solving for p, Initial residual = 9.77646e-07, Final residual = 9.77646e-07, No Iterations 0
time step continuity errors : sum local = 5.33099e-11, global = -7.08259e-20, cumulative = 1.6757e-19
ExecutionTime = 36.21 s  ClockTime = 38 s

Courant Number mean: 0.0458845 max: 0.919228
Time = 0.034

smoothSolver:  Solving for Ux, Initial residual = 0.00335354, Final residual = 2.33562e-07, No Iterations 3
smoothSolver:  Solving for Uy, Initial residual = 0.00387711, Final residual = 3.03113e-07, No Iterations 3
DICPCG:  Solving for p, Initial residual = 0.00695941, Final residual = 9.15863e-07, No Iterations 175
DICPCG:  Solving for p, Initial residual = 9.14804e-07, Final residual = 9.14804e-07, No Iterations 0
DICPCG:  Solving for p, Initial residual = 9.14804e-07, Final residual = 9.14804e-07, No Iterations 0
time step continuity errors : sum local = 4.99988e-11, global = 1.62289e-20, cumulative = 1.83799e-19
DICPCG:  Solving for p, Initial residual = 0.00223251, Final residual = 9.62387e-07, No Iterations 164
DICPCG:  Solving for p, Initial residual = 9.62706e-07, Final residual = 9.62706e-07, No Iterations 0
DICPCG:  Solving for p, Initial residual = 9.62706e-07, Final residual = 9.62706e-07, No Iterations 0
time step continuity errors : sum local = 5.2582e-11, global = 1.23551e-20, cumulative = 1.96154e-19
ExecutionTime = 36.67 s  ClockTime = 38 s

Courant Number mean: 0.0461699 max: 0.919933
Time = 0.0345

smoothSolver:  Solving for Ux, Initial residual = 0.00330469, Final residual = 2.30149e-07, No Iterations 3
smoothSolver:  Solving for Uy, Initial residual = 0.00382973, Final residual = 2.98983e-07, No Iterations 3
[...]

smoothSolver:  Solving for Ux, Initial residual = 0.0007904, Final residual = 5.39913e-08, No Iterations 3
smoothSolver:  Solving for Uy, Initial residual = 0.00082812, Final residual = 5.90598e-08, No Iterations 3
DICPCG:  Solving for p, Initial residual = 0.00179118, Final residual = 9.91377e-07, No Iterations 145
DICPCG:  Solving for p, Initial residual = 9.91348e-07, Final residual = 9.91348e-07, No Iterations 0
DICPCG:  Solving for p, Initial residual = 9.91348e-07, Final residual = 9.91348e-07, No Iterations 0
time step continuity errors : sum local = 6.86643e-11, global = 1.67815e-21, cumulative = 2.08649e-19
DICPCG:  Solving for p, Initial residual = 0.000613989, Final residual = 9.23339e-07, No Iterations 135
DICPCG:  Solving for p, Initial residual = 9.23348e-07, Final residual = 9.23348e-07, No Iterations 0
DICPCG:  Solving for p, Initial residual = 9.23348e-07, Final residual = 9.23348e-07, No Iterations 0
time step continuity errors : sum local = 6.39532e-11, global = 5.83443e-20, cumulative = 2.66993e-19
ExecutionTime = 290.72 s  ClockTime = 299 s

Courant Number mean: 0.118963 max: 0.962139
Time = 0.307

smoothSolver:  Solving for Ux, Initial residual = 0.000789667, Final residual = 5.39415e-08, No Iterations 3
smoothSolver:  Solving for Uy, Initial residual = 0.00082698, Final residual = 5.89796e-08, No Iterations 3
DICPCG:  Solving for p, Initial residual = 0.00178773, Final residual = 9.55742e-07, No Iterations 145
DICPCG:  Solving for p, Initial residual = 9.55711e-07, Final residual = 9.55711e-07, No Iterations 0
DICPCG:  Solving for p, Initial residual = 9.55711e-07, Final residual = 9.55711e-07, No Iterations 0
time step continuity errors : sum local = 6.6199e-11, global = 1.87873e-20, cumulative = 2.8578e-19
DICPCG:  Solving for p, Initial residual = 0.000612834, Final residual = 9.08188e-07, No Iterations 135
DICPCG:  Solving for p, Initial residual = 9.08198e-07, Final residual = 9.08198e-07, No Iterations 0
DICPCG:  Solving for p, Initial residual = 9.08198e-07, Final residual = 9.08198e-07, No Iterations 0
time step continuity errors : sum local = 6.29066e-11, global = -3.99427e-20, cumulative = 2.45838e-19
ExecutionTime = 291.13 s  ClockTime = 299 s

Courant Number mean: 0.119063 max: 0.962132
Time = 0.3075

smoothSolver:  Solving for Ux, Initial residual = 0.000788922, Final residual = 5.38915e-08, No Iterations 3
smoothSolver:  Solving for Uy, Initial residual = 0.000825832, Final residual = 5.88993e-08, No Iterations 3
DICPCG:  Solving for p, Initial residual = 0.00178428, Final residual = 9.95996e-07, No Iterations 144
DICPCG:  Solving for p, Initial residual = 9.95962e-07, Final residual = 9.95962e-07, No Iterations 0
DICPCG:  Solving for p, Initial residual = 9.95962e-07, Final residual = 9.95962e-07, No Iterations 0
time step continuity errors : sum local = 6.89903e-11, global = 3.64604e-20, cumulative = 2.82298e-19
DICPCG:  Solving for p, Initial residual = 0.00061171, Final residual = 8.97771e-07, No Iterations 135
DICPCG:  Solving for p, Initial residual = 8.97781e-07, Final residual = 8.97781e-07, No Iterations 0
DICPCG:  Solving for p, Initial residual = 8.97781e-07, Final residual = 8.97781e-07, No Iterations 0
time step continuity errors : sum local = 6.2188e-11, global = 5.03901e-20, cumulative = 3.32688e-19
ExecutionTime = 291.53 s  ClockTime = 299 s

Courant Number mean: 0.119164 max: 0.962125
Time = 0.308

smoothSolver:  Solving for Ux, Initial residual = 0.000788181, Final residual = 5.38409e-08, No Iterations 3
smoothSolver:  Solving for Uy, Initial residual = 0.000824686, Final residual = 5.88198e-08, No Iterations 3
DICPCG:  Solving for p, Initial residual = 0.00178092, Final residual = 9.92399e-07, No Iterations 144
DICPCG:  Solving for p, Initial residual = 9.92361e-07, Final residual = 9.92361e-07, No Iterations 0
DICPCG:  Solving for p, Initial residual = 9.92361e-07, Final residual = 9.92361e-07, No Iterations 0
time step continuity errors : sum local = 6.87447e-11, global = 1.24132e-20, cumulative = 3.45101e-19
DICPCG:  Solving for p, Initial residual = 0.000610582, Final residual = 9.94792e-07, No Iterations 134
DICPCG:  Solving for p, Initial residual = 9.94805e-07, Final residual = 9.94805e-07, No Iterations 0
DICPCG:  Solving for p, Initial residual = 9.94805e-07, Final residual = 9.94805e-07, No Iterations 0
time step continuity errors : sum local = 6.89123e-11, global = 3.26147e-20, cumulative = 3.77716e-19
ExecutionTime = 291.93 s  ClockTime = 300 s

Courant Number mean: 0.119264 max: 0.962118
Time = 0.3085

smoothSolver:  Solving for Ux, Initial residual = 0.000787455, Final residual = 5.37907e-08, No Iterations 3
smoothSolver:  Solving for Uy, Initial residual = 0.000823533, Final residual = 5.874e-08, No Iterations 3
DICPCG:  Solving for p, Initial residual = 0.00177762, Final residual = 9.7562e-07, No Iterations 144
DICPCG:  Solving for p, Initial residual = 9.75578e-07, Final residual = 9.75578e-07, No Iterations 0
DICPCG:  Solving for p, Initial residual = 9.75578e-07, Final residual = 9.75578e-07, No Iterations 0
time step continuity errors : sum local = 6.75861e-11, global = -9.40464e-20, cumulative = 2.83669e-19
DICPCG:  Solving for p, Initial residual = 0.000609466, Final residual = 9.90509e-07, No Iterations 134
DICPCG:  Solving for p, Initial residual = 9.90522e-07, Final residual = 9.90522e-07, No Iterations 0
DICPCG:  Solving for p, Initial residual = 9.90522e-07, Final residual = 9.90522e-07, No Iterations 0
time step continuity errors : sum local = 6.86196e-11, global = 3.20799e-21, cumulative = 2.86877e-19
ExecutionTime = 292.33 s  ClockTime = 300 s

Courant Number mean: 0.119364 max: 0.962111
Time = 0.309

smoothSolver:  Solving for Ux, Initial residual = 0.000786728, Final residual = 5.3741e-08, No Iterations 3
smoothSolver:  Solving for Uy, Initial residual = 0.000822384, Final residual = 5.866e-08, No Iterations 3
DICPCG:  Solving for p, Initial residual = 0.00177428, Final residual = 9.49655e-07, No Iterations 144
DICPCG:  Solving for p, Initial residual = 9.49617e-07, Final residual = 9.49617e-07, No Iterations 0
DICPCG:  Solving for p, Initial residual = 9.49617e-07, Final residual = 9.49617e-07, No Iterations 0
time step continuity errors : sum local = 6.57911e-11, global = 2.92328e-20, cumulative = 3.1611e-19
DICPCG:  Solving for p, Initial residual = 0.000608309, Final residual = 9.77315e-07, No Iterations 134
DICPCG:  Solving for p, Initial residual = 9.77327e-07, Final residual = 9.77327e-07, No Iterations 0
DICPCG:  Solving for p, Initial residual = 9.77327e-07, Final residual = 9.77327e-07, No Iterations 0
time step continuity errors : sum local = 6.77093e-11, global = 1.1165e-19, cumulative = 4.2776e-19
ExecutionTime = 292.74 s  ClockTime = 301 s

Courant Number mean: 0.119464 max: 0.962104
Time = 0.3095

smoothSolver:  Solving for Ux, Initial residual = 0.000785997, Final residual = 5.36911e-08, No Iterations 3
smoothSolver:  Solving for Uy, Initial residual = 0.000821254, Final residual = 5.858e-08, No Iterations 3
DICPCG:  Solving for p, Initial residual = 0.00177093, Final residual = 9.38667e-07, No Iterations 144
DICPCG:  Solving for p, Initial residual = 9.38632e-07, Final residual = 9.38632e-07, No Iterations 0
DICPCG:  Solving for p, Initial residual = 9.38632e-07, Final residual = 9.38632e-07, No Iterations 0
time step continuity errors : sum local = 6.50334e-11, global = -5.41459e-20, cumulative = 3.73614e-19
DICPCG:  Solving for p, Initial residual = 0.000607177, Final residual = 9.50996e-07, No Iterations 134
DICPCG:  Solving for p, Initial residual = 9.51006e-07, Final residual = 9.51006e-07, No Iterations 0
DICPCG:  Solving for p, Initial residual = 9.51006e-07, Final residual = 9.51006e-07, No Iterations 0
time step continuity errors : sum local = 6.58893e-11, global = -9.79852e-20, cumulative = 2.75629e-19
ExecutionTime = 293.16 s  ClockTime = 301 s

Courant Number mean: 0.119564 max: 0.962097
Time = 0.31

smoothSolver:  Solving for Ux, Initial residual = 0.000785267, Final residual = 5.36413e-08, No Iterations 3
smoothSolver:  Solving for Uy, Initial residual = 0.000820124, Final residual = 5.85006e-08, No Iterations 3
DICPCG:  Solving for p, Initial residual = 0.00176761, Final residual = 9.90458e-07, No Iterations 143
DICPCG:  Solving for p, Initial residual = 9.90425e-07, Final residual = 9.90425e-07, No Iterations 0
DICPCG:  Solving for p, Initial residual = 9.90425e-07, Final residual = 9.90425e-07, No Iterations 0
time step continuity errors : sum local = 6.86249e-11, global = 4.03478e-20, cumulative = 3.15977e-19
DICPCG:  Solving for p, Initial residual = 0.00060605, Final residual = 9.60112e-07, No Iterations 134
DICPCG:  Solving for p, Initial residual = 9.60121e-07, Final residual = 9.60121e-07, No Iterations 0
DICPCG:  Solving for p, Initial residual = 9.60121e-07, Final residual = 9.60121e-07, No Iterations 0
time step continuity errors : sum local = 6.6524e-11, global = -3.05832e-20, cumulative = 2.85394e-19
ExecutionTime = 294.03 s  ClockTime = 302 s

Courant Number mean: 0.119663 max: 0.962089
Time = 0.3105

smoothSolver:  Solving for Ux, Initial residual = 0.000784545, Final residual = 5.3591e-08, No Iterations 3
smoothSolver:  Solving for Uy, Initial residual = 0.000819, Final residual = 5.84215e-08, No Iterations 3
DICPCG:  Solving for p, Initial residual = 0.00176432, Final residual = 9.84698e-07, No Iterations 143
DICPCG:  Solving for p, Initial residual = 9.84668e-07, Final residual = 9.84668e-07, No Iterations 0
DICPCG:  Solving for p, Initial residual = 9.84668e-07, Final residual = 9.84668e-07, No Iterations 0
time step continuity errors : sum local = 6.82289e-11, global = 2.0601e-21, cumulative = 2.87454e-19
DICPCG:  Solving for p, Initial residual = 0.000604906, Final residual = 9.58446e-07, No Iterations 134
DICPCG:  Solving for p, Initial residual = 9.58455e-07, Final residual = 9.58455e-07, No Iterations 0
DICPCG:  Solving for p, Initial residual = 9.58455e-07, Final residual = 9.58455e-07, No Iterations 0
time step continuity errors : sum local = 6.64114e-11, global = 6.22638e-21, cumulative = 2.9368e-19
ExecutionTime = 294.96 s  ClockTime = 303 s

Courant Number mean: 0.119763 max: 0.962082
Time = 0.311

smoothSolver:  Solving for Ux, Initial residual = 0.00078383, Final residual = 5.35408e-08, No Iterations 3
smoothSolver:  Solving for Uy, Initial residual = 0.000817877, Final residual = 5.83432e-08, No Iterations 3
DICPCG:  Solving for p, Initial residual = 0.001761, Final residual = 9.70161e-07, No Iterations 143
DICPCG:  Solving for p, Initial residual = 9.70132e-07, Final residual = 9.70132e-07, No Iterations 0
DICPCG:  Solving for p, Initial residual = 9.70132e-07, Final residual = 9.70132e-07, No Iterations 0
time step continuity errors : sum local = 6.72244e-11, global = 5.27712e-20, cumulative = 3.46452e-19
DICPCG:  Solving for p, Initial residual = 0.000603748, Final residual = 9.36404e-07, No Iterations 134
DICPCG:  Solving for p, Initial residual = 9.36412e-07, Final residual = 9.36412e-07, No Iterations 0
DICPCG:  Solving for p, Initial residual = 9.36412e-07, Final residual = 9.36412e-07, No Iterations 0
time step continuity errors : sum local = 6.48867e-11, global = -4.38126e-20, cumulative = 3.02639e-19
ExecutionTime = 295.35 s  ClockTime = 303 s

Courant Number mean: 0.119863 max: 0.962075
Time = 0.3115

smoothSolver:  Solving for Ux, Initial residual = 0.000783102, Final residual = 5.34914e-08, No Iterations 3
smoothSolver:  Solving for Uy, Initial residual = 0.000816754, Final residual = 5.82647e-08, No Iterations 3
DICPCG:  Solving for p, Initial residual = 0.0017576, Final residual = 9.6167e-07, No Iterations 143
DICPCG:  Solving for p, Initial residual = 9.61645e-07, Final residual = 9.61645e-07, No Iterations 0
DICPCG:  Solving for p, Initial residual = 9.61645e-07, Final residual = 9.61645e-07, No Iterations 0
time step continuity errors : sum local = 6.66387e-11, global = -4.79569e-20, cumulative = 2.54682e-19
DICPCG:  Solving for p, Initial residual = 0.000602588, Final residual = 9.43545e-07, No Iterations 134
DICPCG:  Solving for p, Initial residual = 9.43552e-07, Final residual = 9.43552e-07, No Iterations 0
DICPCG:  Solving for p, Initial residual = 9.43552e-07, Final residual = 9.43552e-07, No Iterations 0
time step continuity errors : sum local = 6.5384e-11, global = -1.22183e-20, cumulative = 2.42464e-19
ExecutionTime = 295.75 s  ClockTime = 304 s

Courant Number mean: 0.119963 max: 0.962068
Time = 0.312

smoothSolver:  Solving for Ux, Initial residual = 0.000782366, Final residual = 5.34415e-08, No Iterations 3
smoothSolver:  Solving for Uy, Initial residual = 0.000815632, Final residual = 5.81861e-08, No Iterations 3
DICPCG:  Solving for p, Initial residual = 0.00175426, Final residual = 9.68489e-07, No Iterations 143
DICPCG:  Solving for p, Initial residual = 9.68467e-07, Final residual = 9.68467e-07, No Iterations 0
DICPCG:  Solving for p, Initial residual = 9.68467e-07, Final residual = 9.68467e-07, No Iterations 0
time step continuity errors : sum local = 6.71136e-11, global = 2.01252e-20, cumulative = 2.62589e-19
DICPCG:  Solving for p, Initial residual = 0.000601463, Final residual = 9.34352e-07, No Iterations 134
DICPCG:  Solving for p, Initial residual = 9.34358e-07, Final residual = 9.34358e-07, No Iterations 0
DICPCG:  Solving for p, Initial residual = 9.34358e-07, Final residual = 9.34358e-07, No Iterations 0
time step continuity errors : sum local = 6.4749e-11, global = 7.81874e-21, cumulative = 2.70408e-19
ExecutionTime = 296.15 s  ClockTime = 304 s

Courant Number mean: 0.120063 max: 0.962061
Time = 0.3125

smoothSolver:  Solving for Ux, Initial residual = 0.000781632, Final residual = 5.3391e-08, No Iterations 3
smoothSolver:  Solving for Uy, Initial residual = 0.000814516, Final residual = 5.81084e-08, No Iterations 3
DICPCG:  Solving for p, Initial residual = 0.00175088, Final residual = 9.38889e-07, No Iterations 143
DICPCG:  Solving for p, Initial residual = 9.38863e-07, Final residual = 9.38863e-07, No Iterations 0
DICPCG:  Solving for p, Initial residual = 9.38863e-07, Final residual = 9.38863e-07, No Iterations 0
time step continuity errors : sum local = 6.50649e-11, global = -4.86835e-20, cumulative = 2.21724e-19
DICPCG:  Solving for p, Initial residual = 0.000600341, Final residual = 9.23375e-07, No Iterations 134
DICPCG:  Solving for p, Initial residual = 9.23384e-07, Final residual = 9.23384e-07, No Iterations 0
DICPCG:  Solving for p, Initial residual = 9.23384e-07, Final residual = 9.23384e-07, No Iterations 0
time step continuity errors : sum local = 6.39909e-11, global = -3.88205e-20, cumulative = 1.82904e-19
ExecutionTime = 296.56 s  ClockTime = 305 s

Courant Number mean: 0.120163 max: 0.962054
Time = 0.313

smoothSolver:  Solving for Ux, Initial residual = 0.000780897, Final residual = 5.3341e-08, No Iterations 3
smoothSolver:  Solving for Uy, Initial residual = 0.000813391, Final residual = 5.80308e-08, No Iterations 3
DICPCG:  Solving for p, Initial residual = 0.00174758, Final residual = 9.38792e-07, No Iterations 143
DICPCG:  Solving for p, Initial residual = 9.38763e-07, Final residual = 9.38763e-07, No Iterations 0
DICPCG:  Solving for p, Initial residual = 9.38763e-07, Final residual = 9.38763e-07, No Iterations 0
time step continuity errors : sum local = 6.50607e-11, global = -6.65419e-20, cumulative = 1.16362e-19
DICPCG:  Solving for p, Initial residual = 0.000599228, Final residual = 9.99302e-07, No Iterations 133
DICPCG:  Solving for p, Initial residual = 9.99311e-07, Final residual = 9.99311e-07, No Iterations 0
DICPCG:  Solving for p, Initial residual = 9.99311e-07, Final residual = 9.99311e-07, No Iterations 0
time step continuity errors : sum local = 6.92557e-11, global = 8.88864e-21, cumulative = 1.2525e-19
ExecutionTime = 296.95 s  ClockTime = 305 s

Courant Number mean: 0.120263 max: 0.962047
Time = 0.3135

smoothSolver:  Solving for Ux, Initial residual = 0.000780154, Final residual = 5.3291e-08, No Iterations 3
smoothSolver:  Solving for Uy, Initial residual = 0.000812265, Final residual = 5.79528e-08, No Iterations 3
DICPCG:  Solving for p, Initial residual = 0.0017443, Final residual = 9.19902e-07, No Iterations 143
DICPCG:  Solving for p, Initial residual = 9.19874e-07, Final residual = 9.19874e-07, No Iterations 0
DICPCG:  Solving for p, Initial residual = 9.19874e-07, Final residual = 9.19874e-07, No Iterations 0
time step continuity errors : sum local = 6.37543e-11, global = -2.85822e-20, cumulative = 9.66683e-20
DICPCG:  Solving for p, Initial residual = 0.000598125, Final residual = 9.91384e-07, No Iterations 133
DICPCG:  Solving for p, Initial residual = 9.91394e-07, Final residual = 9.91394e-07, No Iterations 0
DICPCG:  Solving for p, Initial residual = 9.91394e-07, Final residual = 9.91394e-07, No Iterations 0
time step continuity errors : sum local = 6.87099e-11, global = 7.04404e-20, cumulative = 1.67109e-19
ExecutionTime = 297.35 s  ClockTime = 305 s

Courant Number mean: 0.120362 max: 0.96204
Time = 0.314

smoothSolver:  Solving for Ux, Initial residual = 0.000779418, Final residual = 5.32408e-08, No Iterations 3
smoothSolver:  Solving for Uy, Initial residual = 0.000811152, Final residual = 5.78746e-08, No Iterations 3
DICPCG:  Solving for p, Initial residual = 0.00174093, Final residual = 9.0721e-07, No Iterations 143
DICPCG:  Solving for p, Initial residual = 9.07182e-07, Final residual = 9.07182e-07, No Iterations 0
DICPCG:  Solving for p, Initial residual = 9.07182e-07, Final residual = 9.07182e-07, No Iterations 0
time step continuity errors : sum local = 6.28773e-11, global = 7.22878e-20, cumulative = 2.39397e-19
DICPCG:  Solving for p, Initial residual = 0.000597006, Final residual = 9.78658e-07, No Iterations 133
DICPCG:  Solving for p, Initial residual = 9.78666e-07, Final residual = 9.78666e-07, No Iterations 0
DICPCG:  Solving for p, Initial residual = 9.78666e-07, Final residual = 9.78666e-07, No Iterations 0
time step continuity errors : sum local = 6.78308e-11, global = -9.86956e-21, cumulative = 2.29527e-19
ExecutionTime = 297.75 s  ClockTime = 306 s

Courant Number mean: 0.120462 max: 0.962033
Time = 0.3145

smoothSolver:  Solving for Ux, Initial residual = 0.000778682, Final residual = 5.31908e-08, No Iterations 3
smoothSolver:  Solving for Uy, Initial residual = 0.000810045, Final residual = 5.77964e-08, No Iterations 3
DICPCG:  Solving for p, Initial residual = 0.00173764, Final residual = 8.97171e-07, No Iterations 143
DICPCG:  Solving for p, Initial residual = 8.97146e-07, Final residual = 8.97146e-07, No Iterations 0
DICPCG:  Solving for p, Initial residual = 8.97146e-07, Final residual = 8.97146e-07, No Iterations 0
time step continuity errors : sum local = 6.21841e-11, global = 2.21071e-20, cumulative = 2.51634e-19
DICPCG:  Solving for p, Initial residual = 0.000595915, Final residual = 9.69701e-07, No Iterations 133
DICPCG:  Solving for p, Initial residual = 9.69709e-07, Final residual = 9.69709e-07, No Iterations 0
DICPCG:  Solving for p, Initial residual = 9.69709e-07, Final residual = 9.69709e-07, No Iterations 0
time step continuity errors : sum local = 6.72126e-11, global = -1.35496e-20, cumulative = 2.38085e-19
ExecutionTime = 298.15 s  ClockTime = 306 s

Courant Number mean: 0.120561 max: 0.962026
Time = 0.315

smoothSolver:  Solving for Ux, Initial residual = 0.000777953, Final residual = 5.31407e-08, No Iterations 3
smoothSolver:  Solving for Uy, Initial residual = 0.000808942, Final residual = 5.77192e-08, No Iterations 3
DICPCG:  Solving for p, Initial residual = 0.00173447, Final residual = 8.92338e-07, No Iterations 143
DICPCG:  Solving for p, Initial residual = 8.92314e-07, Final residual = 8.92314e-07, No Iterations 0
DICPCG:  Solving for p, Initial residual = 8.92314e-07, Final residual = 8.92314e-07, No Iterations 0
time step continuity errors : sum local = 6.18515e-11, global = 4.87955e-20, cumulative = 2.8688e-19
